# DDEC6 charges by PACMAN v1.1 (https://github.com/mtap-research/PACMAN-charge/)
data_WASMIP01_ASR_pacman
_symmetry_space_group_name_H-M   'P 1'
_cell_length_a   8.37550000
_cell_length_b   16.25490000
_cell_length_c   17.07480000
_cell_angle_alpha   90.00000000
_cell_angle_beta   101.16800000
_cell_angle_gamma   90.00000000
_symmetry_Int_Tables_number   1
_chemical_formula_structural   FeH8C17S2N9
_chemical_formula_sum   'Fe4 H32 C68 S8 N36'
_cell_volume   2280.59297040
_cell_formula_units_Z   4
loop_
 _symmetry_equiv_pos_site_id
 _symmetry_equiv_pos_as_xyz
  1  'x, y, z'
loop_
 _atom_site_type_symbol
 _atom_site_label
 _atom_site_symmetry_multiplicity
 _atom_site_fract_x
 _atom_site_fract_y
 _atom_site_fract_z
 _atom_site_occupancy
 _atom_site_charge
Fe  Fe1  1  0.98520000  0.24974000  0.76904000  1.0 0.8244709553
Fe  Fe2  1  0.01480000  0.74974000  0.73096000  1.0 0.8278213721
Fe  Fe3  1  0.01480000  0.75026000  0.23096000  1.0 0.8278213721
Fe  Fe4  1  0.98520000  0.25026000  0.26904000  1.0 0.8278213721
H  H1  1  0.10720000  0.10300000  0.87680000  1.0 0.0967935796
H  H2  1  0.33380000  0.02510000  0.92390000  1.0 0.1220883729
H  H3  1  0.60020000  0.18020000  0.82220000  1.0 0.1421671597
H  H4  1  0.36660000  0.25390000  0.77600000  1.0 0.1088948033
H  H5  1  0.54410000  0.81350000  0.92910000  1.0 0.1303811974
H  H6  1  0.32100000  0.73990000  0.86830000  1.0 0.1088948033
H  H7  1  0.22630000  0.89770000  0.69430000  1.0 0.1088948033
H  H8  1  0.45100000  0.97340000  0.74840000  1.0 0.1421671597
H  H9  1  0.89280000  0.60300000  0.62320000  1.0 0.0967935796
H  H10  1  0.66620000  0.52510000  0.57610000  1.0 0.1303811974
H  H11  1  0.39980000  0.68020000  0.67780000  1.0 0.1421671597
H  H12  1  0.63340000  0.75390000  0.72400000  1.0 0.1088948033
H  H13  1  0.45590000  0.31350000  0.57090000  1.0 0.1303811974
H  H14  1  0.67900000  0.23990000  0.63170000  1.0 0.1088948033
H  H15  1  0.77370000  0.39770000  0.80570000  1.0 0.1088948033
H  H16  1  0.54900000  0.47340000  0.75160000  1.0 0.1421671597
H  H17  1  0.89280000  0.89700000  0.12320000  1.0 0.0967935796
H  H18  1  0.66620000  0.97490000  0.07610000  1.0 0.1303811974
H  H19  1  0.39980000  0.81980000  0.17780000  1.0 0.1421671597
H  H20  1  0.63340000  0.74610000  0.22400000  1.0 0.1088948033
H  H21  1  0.45590000  0.18650000  0.07090000  1.0 0.1303811974
H  H22  1  0.67900000  0.26010000  0.13170000  1.0 0.1088948033
H  H23  1  0.77370000  0.10230000  0.30570000  1.0 0.1088948033
H  H24  1  0.54900000  0.02660000  0.25160000  1.0 0.1421671597
H  H25  1  0.10720000  0.39700000  0.37680000  1.0 0.0967935796
H  H26  1  0.33380000  0.47490000  0.42390000  1.0 0.1220883729
H  H27  1  0.60020000  0.31980000  0.32220000  1.0 0.1421671597
H  H28  1  0.36660000  0.24610000  0.27600000  1.0 0.1088948033
H  H29  1  0.54410000  0.68650000  0.42910000  1.0 0.1303811974
H  H30  1  0.32100000  0.76010000  0.36830000  1.0 0.1088948033
H  H31  1  0.22630000  0.60230000  0.19430000  1.0 0.1088948033
H  H32  1  0.45100000  0.52660000  0.24840000  1.0 0.1421671597
C  C1  1  0.20650000  0.11800000  0.86440000  1.0 0.0789071278
C  C2  1  0.34290000  0.07130000  0.89300000  1.0 -0.1756363033
C  C3  1  0.49130000  0.09200000  0.87640000  1.0 0.1220883729
C  C4  1  0.50100000  0.16250000  0.83290000  1.0 -0.1756363033
C  C5  1  0.35960000  0.20640000  0.80550000  1.0 0.0967935796
C  C6  1  0.63660000  0.04030000  0.90450000  1.0 -0.0593195186
C  C7  1  0.64900000  0.95930000  0.89030000  1.0 -0.0593195186
C  C8  1  0.51740000  0.90420000  0.84820000  1.0 0.1220883729
C  C9  1  0.48010000  0.83250000  0.88190000  1.0 -0.1911805241
C  C10  1  0.34590000  0.78870000  0.84480000  1.0 0.0789071278
C  C11  1  0.29040000  0.88080000  0.74230000  1.0 0.0916891353
C  C12  1  0.42360000  0.92710000  0.77500000  1.0 -0.1646237193
C  C13  1  0.92560000  0.99980000  0.97770000  1.0 -0.1183455648
C  C14  1  0.82060000  0.06840000  0.73290000  1.0 0.4343660654
C  C15  1  0.83610000  0.93080000  0.71600000  1.0 0.4343660654
C  C16  1  0.01810000  0.21000000  0.58860000  1.0 0.312727216
C  C17  1  0.97190000  0.20910000  0.45000000  1.0 0.312727216
C  C18  1  0.79350000  0.61800000  0.63560000  1.0 0.0789071278
C  C19  1  0.65710000  0.57130000  0.60700000  1.0 -0.1756363033
C  C20  1  0.50870000  0.59200000  0.62360000  1.0 0.1220883729
C  C21  1  0.49900000  0.66250000  0.66710000  1.0 -0.1756363033
C  C22  1  0.64040000  0.70640000  0.69450000  1.0 0.0967935796
C  C23  1  0.36340000  0.54030000  0.59550000  1.0 -0.0593195186
C  C24  1  0.35100000  0.45930000  0.60970000  1.0 -0.0593195186
C  C25  1  0.48260000  0.40420000  0.65180000  1.0 0.1220883729
C  C26  1  0.51990000  0.33250000  0.61810000  1.0 -0.1911805241
C  C27  1  0.65410000  0.28870000  0.65520000  1.0 0.0789071278
C  C28  1  0.70960000  0.38080000  0.75770000  1.0 0.0916891353
C  C29  1  0.57640000  0.42710000  0.72500000  1.0 -0.1646237193
C  C30  1  0.07440000  0.49980000  0.52230000  1.0 -0.1183455648
C  C31  1  0.17940000  0.56840000  0.76710000  1.0 0.4343660654
C  C32  1  0.16390000  0.43080000  0.78400000  1.0 0.4343660654
C  C33  1  0.98190000  0.71000000  0.91140000  1.0 0.312727216
C  C34  1  0.02810000  0.70910000  0.05000000  1.0 0.312727216
C  C35  1  0.79350000  0.88200000  0.13560000  1.0 0.0789071278
C  C36  1  0.65710000  0.92870000  0.10700000  1.0 -0.1756363033
C  C37  1  0.50870000  0.90800000  0.12360000  1.0 0.1220883729
C  C38  1  0.49900000  0.83750000  0.16710000  1.0 -0.1756363033
C  C39  1  0.64040000  0.79360000  0.19450000  1.0 0.0967935796
C  C40  1  0.36340000  0.95970000  0.09550000  1.0 -0.0593195186
C  C41  1  0.35100000  0.04070000  0.10970000  1.0 -0.0593195186
C  C42  1  0.48260000  0.09580000  0.15180000  1.0 0.1220883729
C  C43  1  0.51990000  0.16750000  0.11810000  1.0 -0.1911805241
C  C44  1  0.65410000  0.21130000  0.15520000  1.0 0.0789071278
C  C45  1  0.70960000  0.11920000  0.25770000  1.0 0.0916891353
C  C46  1  0.57640000  0.07290000  0.22500000  1.0 -0.1646237193
C  C47  1  0.07440000  0.00020000  0.02230000  1.0 -0.1183455648
C  C48  1  0.17940000  0.93160000  0.26710000  1.0 0.4354566814
C  C49  1  0.16390000  0.06920000  0.28400000  1.0 0.4343660654
C  C50  1  0.98190000  0.79000000  0.41140000  1.0 0.312727216
C  C51  1  0.02810000  0.79090000  0.55000000  1.0 0.312727216
C  C52  1  0.20650000  0.38200000  0.36440000  1.0 0.0789071278
C  C53  1  0.34290000  0.42870000  0.39300000  1.0 -0.1756363033
C  C54  1  0.49130000  0.40800000  0.37640000  1.0 0.1220883729
C  C55  1  0.50100000  0.33750000  0.33290000  1.0 -0.1756363033
C  C56  1  0.35960000  0.29360000  0.30550000  1.0 0.0967935796
C  C57  1  0.63660000  0.45970000  0.40450000  1.0 -0.0593195186
C  C58  1  0.64900000  0.54070000  0.39030000  1.0 -0.0593195186
C  C59  1  0.51740000  0.59580000  0.34820000  1.0 0.1220883729
C  C60  1  0.48010000  0.66750000  0.38190000  1.0 -0.1911805241
C  C61  1  0.34590000  0.71130000  0.34480000  1.0 0.0789071278
C  C62  1  0.29040000  0.61920000  0.24230000  1.0 0.0916891353
C  C63  1  0.42360000  0.57290000  0.27500000  1.0 -0.1646237193
C  C64  1  0.92560000  0.50020000  0.47770000  1.0 -0.1183455648
C  C65  1  0.82060000  0.43160000  0.23290000  1.0 0.4343660654
C  C66  1  0.83610000  0.56920000  0.21600000  1.0 0.4343660654
C  C67  1  0.01810000  0.29000000  0.08860000  1.0 0.312727216
C  C68  1  0.97190000  0.29090000  0.95000000  1.0 0.312727216
S  S1  1  0.83592000  0.91201000  0.92782000  1.0 0.0916891353
S  S2  1  0.80557000  0.08910000  0.96143000  1.0 0.0967935796
S  S3  1  0.16408000  0.41201000  0.57218000  1.0 0.0967935796
S  S4  1  0.19443000  0.58910000  0.53857000  1.0 0.0916891353
S  S5  1  0.16408000  0.08799000  0.07218000  1.0 0.0916891353
S  S6  1  0.19443000  0.91090000  0.03857000  1.0 0.0967935796
S  S7  1  0.83592000  0.58799000  0.42782000  1.0 0.0916891353
S  S8  1  0.80557000  0.41090000  0.46143000  1.0 0.0967935796
N  N1  1  0.21420000  0.18440000  0.81910000  1.0 -0.2242723165
N  N2  1  0.24940000  0.81260000  0.77670000  1.0 -0.2256013869
N  N3  1  0.85730000  0.13330000  0.75610000  1.0 -0.5444484769
N  N4  1  0.88820000  0.86550000  0.72190000  1.0 -0.5306339084
N  N5  1  0.02650000  0.23110000  0.65120000  1.0 -0.5184993712
N  N6  1  0.94850000  0.22960000  0.38810000  1.0 -0.5184993712
N  N7  1  0.93000000  0.17670000  0.51670000  1.0 -0.0811589422
N  N8  1  0.75500000  0.99920000  0.70420000  1.0 -0.3907437442
N  N9  1  0.06300000  0.18120000  0.52320000  1.0 -0.0864158092
N  N10  1  0.78580000  0.68440000  0.68090000  1.0 -0.2242723165
N  N11  1  0.75060000  0.31260000  0.72330000  1.0 -0.2242723165
N  N12  1  0.14270000  0.63330000  0.74390000  1.0 -0.5444484769
N  N13  1  0.11180000  0.36550000  0.77810000  1.0 -0.5306339084
N  N14  1  0.97350000  0.73110000  0.84880000  1.0 -0.5184993712
N  N15  1  0.05150000  0.72960000  0.11190000  1.0 -0.5184993712
N  N16  1  0.07000000  0.67670000  0.98330000  1.0 -0.0864158092
N  N17  1  0.24500000  0.49920000  0.79580000  1.0 -0.3907437442
N  N18  1  0.93700000  0.68120000  0.97680000  1.0 -0.0811589422
N  N19  1  0.78580000  0.81560000  0.18090000  1.0 -0.2256013869
N  N20  1  0.75060000  0.18740000  0.22330000  1.0 -0.2242723165
N  N21  1  0.14270000  0.86670000  0.24390000  1.0 -0.5460988699
N  N22  1  0.11180000  0.13450000  0.27810000  1.0 -0.5306339084
N  N23  1  0.97350000  0.76890000  0.34880000  1.0 -0.5184993712
N  N24  1  0.05150000  0.77040000  0.61190000  1.0 -0.5184993712
N  N25  1  0.07000000  0.82330000  0.48330000  1.0 -0.0811589422
N  N26  1  0.24500000  0.00080000  0.29580000  1.0 -0.3907437442
N  N27  1  0.93700000  0.81880000  0.47680000  1.0 -0.0864158092
N  N28  1  0.21420000  0.31560000  0.31910000  1.0 -0.2242723165
N  N29  1  0.24940000  0.68740000  0.27670000  1.0 -0.2256013869
N  N30  1  0.85730000  0.36670000  0.25610000  1.0 -0.5460988699
N  N31  1  0.88820000  0.63450000  0.22190000  1.0 -0.5306339084
N  N32  1  0.02650000  0.26890000  0.15120000  1.0 -0.5184993712
N  N33  1  0.94850000  0.27040000  0.88810000  1.0 -0.5184993712
N  N34  1  0.93000000  0.32330000  0.01670000  1.0 -0.0864158092
N  N35  1  0.75500000  0.50080000  0.20420000  1.0 -0.3907437442
N  N36  1  0.06300000  0.31880000  0.02320000  1.0 -0.0811589422
