# DDEC6 charges by PACMAN v1.1 (https://github.com/mtap-research/PACMAN-charge/)
data_WASMUB_ASR_pacman
_symmetry_space_group_name_H-M   'P 1'
_cell_length_a   9.68330000
_cell_length_b   15.49820000
_cell_length_c   29.92900000
_cell_angle_alpha   90.00000000
_cell_angle_beta   90.00000000
_cell_angle_gamma   90.00000000
_symmetry_Int_Tables_number   1
_chemical_formula_structural   FeH32C44S4N7
_chemical_formula_sum   'Fe4 H128 C176 S16 N28'
_cell_volume   4491.55636768
_cell_formula_units_Z   4
loop_
 _symmetry_equiv_pos_site_id
 _symmetry_equiv_pos_as_xyz
  1  'x, y, z'
loop_
 _atom_site_type_symbol
 _atom_site_label
 _atom_site_symmetry_multiplicity
 _atom_site_fract_x
 _atom_site_fract_y
 _atom_site_fract_z
 _atom_site_occupancy
 _atom_site_charge
Fe  Fe1  1  0.00000000  0.21713000  0.73149000  1.0 0.5812062513
Fe  Fe2  1  0.00000000  0.78287000  0.26851000  1.0 0.5812062513
Fe  Fe3  1  0.00000000  0.28287000  0.23149000  1.0 0.5812062513
Fe  Fe4  1  0.00000000  0.71713000  0.76851000  1.0 0.5812062513
H  H1  1  0.27510000  0.28930000  0.69330000  1.0 0.0691005557
H  H2  1  0.27510000  0.71070000  0.30670000  1.0 0.0691005557
H  H3  1  0.72490000  0.21070000  0.19330000  1.0 0.0691005557
H  H4  1  0.72490000  0.78930000  0.80670000  1.0 0.0691005557
H  H5  1  0.72490000  0.71070000  0.30670000  1.0 0.0691005557
H  H6  1  0.72490000  0.28930000  0.69330000  1.0 0.0691005557
H  H7  1  0.27510000  0.78930000  0.80670000  1.0 0.0691005557
H  H8  1  0.27510000  0.21070000  0.19330000  1.0 0.0691005557
H  H9  1  0.10010000  0.06250000  0.67640000  1.0 0.1007624185
H  H10  1  0.10010000  0.93750000  0.32360000  1.0 0.1007624185
H  H11  1  0.89990000  0.43750000  0.17640000  1.0 0.1007624185
H  H12  1  0.89990000  0.56250000  0.82360000  1.0 0.1007624185
H  H13  1  0.89990000  0.93750000  0.32360000  1.0 0.1007624185
H  H14  1  0.89990000  0.06250000  0.67640000  1.0 0.1007624185
H  H15  1  0.10010000  0.56250000  0.82360000  1.0 0.1007624185
H  H16  1  0.10010000  0.43750000  0.17640000  1.0 0.1007624185
H  H17  1  0.43920000  0.25430000  0.64100000  1.0 0.0892258232
H  H18  1  0.43920000  0.74570000  0.35900000  1.0 0.0892258232
H  H19  1  0.56080000  0.24570000  0.14100000  1.0 0.0892258232
H  H20  1  0.56080000  0.75430000  0.85900000  1.0 0.0892258232
H  H21  1  0.56080000  0.74570000  0.35900000  1.0 0.0892258232
H  H22  1  0.56080000  0.25430000  0.64100000  1.0 0.0892258232
H  H23  1  0.43920000  0.75430000  0.85900000  1.0 0.0892258232
H  H24  1  0.43920000  0.24570000  0.14100000  1.0 0.0892258232
H  H25  1  0.24400000  0.03340000  0.62260000  1.0 0.108627853
H  H26  1  0.24400000  0.96660000  0.37740000  1.0 0.108627853
H  H27  1  0.75600000  0.46660000  0.12260000  1.0 0.108627853
H  H28  1  0.75600000  0.53340000  0.87740000  1.0 0.108627853
H  H29  1  0.75600000  0.96660000  0.37740000  1.0 0.108627853
H  H30  1  0.75600000  0.03340000  0.62260000  1.0 0.108627853
H  H31  1  0.24400000  0.53340000  0.87740000  1.0 0.108627853
H  H32  1  0.24400000  0.46660000  0.12260000  1.0 0.108627853
H  H33  1  0.42610000  0.14040000  0.28680000  1.0 0.0892258232
H  H34  1  0.42610000  0.85960000  0.71320000  1.0 0.0892258232
H  H35  1  0.57390000  0.35960000  0.78680000  1.0 0.0892258232
H  H36  1  0.57390000  0.64040000  0.21320000  1.0 0.0892258232
H  H37  1  0.57390000  0.85960000  0.71320000  1.0 0.0892258232
H  H38  1  0.57390000  0.14040000  0.28680000  1.0 0.0892258232
H  H39  1  0.42610000  0.64040000  0.21320000  1.0 0.0892258232
H  H40  1  0.42610000  0.35960000  0.78680000  1.0 0.0892258232
H  H41  1  0.20520000  0.26600000  0.37930000  1.0 0.1007624185
H  H42  1  0.20520000  0.73400000  0.62070000  1.0 0.1007624185
H  H43  1  0.79480000  0.23400000  0.87930000  1.0 0.1007624185
H  H44  1  0.79480000  0.76600000  0.12070000  1.0 0.1007624185
H  H45  1  0.79480000  0.73400000  0.62070000  1.0 0.1007624185
H  H46  1  0.79480000  0.26600000  0.37930000  1.0 0.1007624185
H  H47  1  0.20520000  0.76600000  0.12070000  1.0 0.1007624185
H  H48  1  0.20520000  0.23400000  0.87930000  1.0 0.1007624185
H  H49  1  0.26300000  0.17920000  0.23340000  1.0 0.0607096911
H  H50  1  0.26300000  0.82080000  0.76660000  1.0 0.0607096911
H  H51  1  0.73700000  0.32080000  0.73340000  1.0 0.0607096911
H  H52  1  0.73700000  0.67920000  0.26660000  1.0 0.0607096911
H  H53  1  0.73700000  0.82080000  0.76660000  1.0 0.0607096911
H  H54  1  0.73700000  0.17920000  0.23340000  1.0 0.0607096911
H  H55  1  0.26300000  0.67920000  0.26660000  1.0 0.0607096911
H  H56  1  0.26300000  0.32080000  0.73340000  1.0 0.0607096911
H  H57  1  0.06470000  0.31400000  0.32630000  1.0 0.0691005557
H  H58  1  0.06470000  0.68600000  0.67370000  1.0 0.0691005557
H  H59  1  0.93530000  0.18600000  0.82630000  1.0 0.0691005557
H  H60  1  0.93530000  0.81400000  0.17370000  1.0 0.0691005557
H  H61  1  0.93530000  0.68600000  0.67370000  1.0 0.0691005557
H  H62  1  0.93530000  0.31400000  0.32630000  1.0 0.0691005557
H  H63  1  0.06470000  0.81400000  0.17370000  1.0 0.0691005557
H  H64  1  0.06470000  0.18600000  0.82630000  1.0 0.0691005557
H  H65  1  0.96470000  0.24480000  0.63710000  1.0 0.0892258232
H  H66  1  0.96470000  0.75520000  0.36290000  1.0 0.0892258232
H  H67  1  0.03530000  0.25520000  0.13710000  1.0 0.0892258232
H  H68  1  0.03530000  0.74480000  0.86290000  1.0 0.0892258232
H  H69  1  0.03530000  0.75520000  0.36290000  1.0 0.0892258232
H  H70  1  0.03530000  0.24480000  0.63710000  1.0 0.0892258232
H  H71  1  0.96470000  0.74480000  0.86290000  1.0 0.0892258232
H  H72  1  0.96470000  0.25520000  0.13710000  1.0 0.0892258232
H  H73  1  0.80520000  0.22210000  0.58200000  1.0 0.108627853
H  H74  1  0.80520000  0.77790000  0.41800000  1.0 0.108627853
H  H75  1  0.19480000  0.27790000  0.08200000  1.0 0.108627853
H  H76  1  0.19480000  0.72210000  0.91800000  1.0 0.108627853
H  H77  1  0.19480000  0.77790000  0.41800000  1.0 0.108627853
H  H78  1  0.19480000  0.22210000  0.58200000  1.0 0.108627853
H  H79  1  0.80520000  0.72210000  0.91800000  1.0 0.108627853
H  H80  1  0.80520000  0.27790000  0.08200000  1.0 0.108627853
H  H81  1  0.59920000  0.06750000  0.66760000  1.0 0.108627853
H  H82  1  0.59920000  0.93250000  0.33240000  1.0 0.108627853
H  H83  1  0.40080000  0.43250000  0.16760000  1.0 0.108627853
H  H84  1  0.40080000  0.56750000  0.83240000  1.0 0.108627853
H  H85  1  0.40080000  0.93250000  0.33240000  1.0 0.108627853
H  H86  1  0.40080000  0.06750000  0.66760000  1.0 0.108627853
H  H87  1  0.59920000  0.56750000  0.83240000  1.0 0.108627853
H  H88  1  0.59920000  0.43250000  0.16760000  1.0 0.108627853
H  H89  1  0.75220000  0.10640000  0.72150000  1.0 0.0892258232
H  H90  1  0.75220000  0.89360000  0.27850000  1.0 0.0892258232
H  H91  1  0.24780000  0.39360000  0.22150000  1.0 0.0892258232
H  H92  1  0.24780000  0.60640000  0.77850000  1.0 0.0892258232
H  H93  1  0.24780000  0.89360000  0.27850000  1.0 0.0892258232
H  H94  1  0.24780000  0.10640000  0.72150000  1.0 0.0892258232
H  H95  1  0.75220000  0.60640000  0.77850000  1.0 0.0892258232
H  H96  1  0.75220000  0.39360000  0.22150000  1.0 0.0892258232
H  H97  1  0.57350000  0.30130000  0.32170000  1.0 0.1007624185
H  H98  1  0.57350000  0.69870000  0.67830000  1.0 0.1007624185
H  H99  1  0.42650000  0.19870000  0.82170000  1.0 0.1007624185
H  H100  1  0.42650000  0.80130000  0.17830000  1.0 0.1007624185
H  H101  1  0.42650000  0.69870000  0.67830000  1.0 0.1007624185
H  H102  1  0.42650000  0.30130000  0.32170000  1.0 0.1007624185
H  H103  1  0.57350000  0.80130000  0.17830000  1.0 0.1007624185
H  H104  1  0.57350000  0.19870000  0.82170000  1.0 0.1007624185
H  H105  1  0.72090000  0.34460000  0.27480000  1.0 0.0768710462
H  H106  1  0.72090000  0.65540000  0.72520000  1.0 0.0768710462
H  H107  1  0.27910000  0.15540000  0.77480000  1.0 0.0768710462
H  H108  1  0.27910000  0.84460000  0.22520000  1.0 0.0768710462
H  H109  1  0.27910000  0.65540000  0.72520000  1.0 0.0768710462
H  H110  1  0.27910000  0.34460000  0.27480000  1.0 0.0768710462
H  H111  1  0.72090000  0.84460000  0.22520000  1.0 0.0768710462
H  H112  1  0.72090000  0.15540000  0.77480000  1.0 0.0768710462
H  H113  1  0.93410000  0.13240000  0.28900000  1.0 0.0607096911
H  H114  1  0.93410000  0.86760000  0.71100000  1.0 0.0607096911
H  H115  1  0.06590000  0.36760000  0.78900000  1.0 0.0607096911
H  H116  1  0.06590000  0.63240000  0.21100000  1.0 0.0607096911
H  H117  1  0.06590000  0.86760000  0.71100000  1.0 0.0607096911
H  H118  1  0.06590000  0.13240000  0.28900000  1.0 0.0607096911
H  H119  1  0.93410000  0.63240000  0.21100000  1.0 0.0607096911
H  H120  1  0.93410000  0.36760000  0.78900000  1.0 0.0607096911
H  H121  1  0.80100000  0.08560000  0.34340000  1.0 0.0892258232
H  H122  1  0.80100000  0.91440000  0.65660000  1.0 0.0892258232
H  H123  1  0.19900000  0.41440000  0.84340000  1.0 0.0892258232
H  H124  1  0.19900000  0.58560000  0.15660000  1.0 0.0892258232
H  H125  1  0.19900000  0.91440000  0.65660000  1.0 0.0892258232
H  H126  1  0.19900000  0.08560000  0.34340000  1.0 0.0892258232
H  H127  1  0.80100000  0.58560000  0.15660000  1.0 0.0892258232
H  H128  1  0.80100000  0.41440000  0.84340000  1.0 0.0892258232
C  C1  1  0.26490000  0.23840000  0.67720000  1.0 -0.0724338512
C  C2  1  0.26490000  0.76160000  0.32280000  1.0 -0.0724338512
C  C3  1  0.73510000  0.26160000  0.17720000  1.0 -0.0724338512
C  C4  1  0.73510000  0.73840000  0.82280000  1.0 -0.0724338512
C  C5  1  0.73510000  0.76160000  0.32280000  1.0 -0.0724338512
C  C6  1  0.73510000  0.23840000  0.67720000  1.0 -0.0724338512
C  C7  1  0.26490000  0.73840000  0.82280000  1.0 -0.0724338512
C  C8  1  0.26490000  0.26160000  0.17720000  1.0 -0.0724338512
C  C9  1  0.15850000  0.10650000  0.66710000  1.0 -0.0077351058
C  C10  1  0.15850000  0.89350000  0.33290000  1.0 -0.0077351058
C  C11  1  0.84150000  0.39350000  0.16710000  1.0 -0.0077351058
C  C12  1  0.84150000  0.60650000  0.83290000  1.0 -0.0077351058
C  C13  1  0.84150000  0.89350000  0.33290000  1.0 -0.0077351058
C  C14  1  0.84150000  0.10650000  0.66710000  1.0 -0.0077351058
C  C15  1  0.15850000  0.60650000  0.83290000  1.0 -0.0077351058
C  C16  1  0.15850000  0.39350000  0.16710000  1.0 -0.0077351058
C  C17  1  0.00000000  0.04550000  0.78100000  1.0 0.2334372442
C  C18  1  0.00000000  0.95450000  0.21900000  1.0 0.2357823393
C  C19  1  0.00000000  0.45450000  0.28100000  1.0 0.2357823393
C  C20  1  0.00000000  0.54550000  0.71900000  1.0 0.2357823393
C  C21  1  0.36230000  0.21950000  0.64560000  1.0 -0.150393943
C  C22  1  0.36230000  0.78050000  0.35440000  1.0 -0.150393943
C  C23  1  0.63770000  0.28050000  0.14560000  1.0 -0.150393943
C  C24  1  0.63770000  0.71950000  0.85440000  1.0 -0.150393943
C  C25  1  0.63770000  0.78050000  0.35440000  1.0 -0.150393943
C  C26  1  0.63770000  0.21950000  0.64560000  1.0 -0.150393943
C  C27  1  0.36230000  0.71950000  0.85440000  1.0 -0.150393943
C  C28  1  0.36230000  0.28050000  0.14560000  1.0 -0.150393943
C  C29  1  0.24700000  0.08830000  0.63510000  1.0 -0.0991456914
C  C30  1  0.24700000  0.91170000  0.36490000  1.0 -0.0991456914
C  C31  1  0.75300000  0.41170000  0.13510000  1.0 -0.0991456914
C  C32  1  0.75300000  0.58830000  0.86490000  1.0 -0.0991456914
C  C33  1  0.75300000  0.91170000  0.36490000  1.0 -0.0991456914
C  C34  1  0.75300000  0.08830000  0.63510000  1.0 -0.0991456914
C  C35  1  0.24700000  0.58830000  0.86490000  1.0 -0.0991456914
C  C36  1  0.24700000  0.41170000  0.13510000  1.0 -0.0991456914
C  C37  1  0.33840000  0.14230000  0.61990000  1.0 0.0768710462
C  C38  1  0.33840000  0.85770000  0.38010000  1.0 0.0768710462
C  C39  1  0.66160000  0.35770000  0.11990000  1.0 0.0768710462
C  C40  1  0.66160000  0.64230000  0.88010000  1.0 0.0768710462
C  C41  1  0.66160000  0.85770000  0.38010000  1.0 0.0768710462
C  C42  1  0.66160000  0.14230000  0.61990000  1.0 0.0768710462
C  C43  1  0.33840000  0.64230000  0.88010000  1.0 0.0768710462
C  C44  1  0.33840000  0.35770000  0.11990000  1.0 0.0768710462
C  C45  1  0.00000000  0.90490000  0.79940000  1.0 0.3570333016
C  C46  1  0.00000000  0.09510000  0.20060000  1.0 0.3570333016
C  C47  1  0.00000000  0.59510000  0.29940000  1.0 0.3570333016
C  C48  1  0.00000000  0.40490000  0.70060000  1.0 0.3570333016
C  C49  1  0.43310000  0.12500000  0.58330000  1.0 -0.0724338512
C  C50  1  0.43310000  0.87500000  0.41670000  1.0 -0.0724338512
C  C51  1  0.56690000  0.37500000  0.08330000  1.0 -0.0724338512
C  C52  1  0.56690000  0.62500000  0.91670000  1.0 -0.0724338512
C  C53  1  0.56690000  0.87500000  0.41670000  1.0 -0.0724338512
C  C54  1  0.56690000  0.12500000  0.58330000  1.0 -0.0724338512
C  C55  1  0.43310000  0.62500000  0.91670000  1.0 -0.0724338512
C  C56  1  0.43310000  0.37500000  0.08330000  1.0 -0.0724338512
C  C57  1  0.50000000  0.10600000  0.50060000  1.0 -0.090867347
C  C58  1  0.50000000  0.89400000  0.49940000  1.0 -0.090867347
C  C59  1  0.50000000  0.39400000  0.00060000  1.0 -0.090867347
C  C60  1  0.50000000  0.60600000  0.99940000  1.0 -0.090867347
C  C61  1  0.50000000  0.11240000  0.45430000  1.0 -0.0991456914
C  C62  1  0.50000000  0.88760000  0.54570000  1.0 -0.0991456914
C  C63  1  0.50000000  0.38760000  0.95430000  1.0 -0.0991456914
C  C64  1  0.50000000  0.61240000  0.04570000  1.0 -0.0991456914
C  C65  1  0.43140000  0.16290000  0.37500000  1.0 -0.090867347
C  C66  1  0.43140000  0.83710000  0.62500000  1.0 -0.090867347
C  C67  1  0.56860000  0.33710000  0.87500000  1.0 -0.090867347
C  C68  1  0.56860000  0.66290000  0.12500000  1.0 -0.090867347
C  C69  1  0.56860000  0.83710000  0.62500000  1.0 -0.090867347
C  C70  1  0.56860000  0.16290000  0.37500000  1.0 -0.090867347
C  C71  1  0.43140000  0.66290000  0.12500000  1.0 -0.090867347
C  C72  1  0.43140000  0.33710000  0.87500000  1.0 -0.090867347
C  C73  1  0.33710000  0.19000000  0.33940000  1.0 0.0691005557
C  C74  1  0.33710000  0.81000000  0.66060000  1.0 0.0691005557
C  C75  1  0.66290000  0.31000000  0.83940000  1.0 0.0691005557
C  C76  1  0.66290000  0.69000000  0.16060000  1.0 0.0691005557
C  C77  1  0.66290000  0.81000000  0.66060000  1.0 0.0691005557
C  C78  1  0.66290000  0.19000000  0.33940000  1.0 0.0691005557
C  C79  1  0.33710000  0.69000000  0.16060000  1.0 0.0691005557
C  C80  1  0.33710000  0.31000000  0.83940000  1.0 0.0691005557
C  C81  1  0.34920000  0.17160000  0.29590000  1.0 -0.0724338512
C  C82  1  0.34920000  0.82840000  0.70410000  1.0 -0.0724338512
C  C83  1  0.65080000  0.32840000  0.79590000  1.0 -0.0724338512
C  C84  1  0.65080000  0.67160000  0.20410000  1.0 -0.0724338512
C  C85  1  0.65080000  0.82840000  0.70410000  1.0 -0.0724338512
C  C86  1  0.65080000  0.17160000  0.29590000  1.0 -0.0724338512
C  C87  1  0.34920000  0.67160000  0.20410000  1.0 -0.0724338512
C  C88  1  0.34920000  0.32840000  0.79590000  1.0 -0.0724338512
C  C89  1  0.21890000  0.24820000  0.35000000  1.0 -0.07685941
C  C90  1  0.21890000  0.75180000  0.65000000  1.0 -0.07685941
C  C91  1  0.78110000  0.25180000  0.85000000  1.0 -0.07685941
C  C92  1  0.78110000  0.74820000  0.15000000  1.0 -0.07685941
C  C93  1  0.78110000  0.75180000  0.65000000  1.0 -0.0724338512
C  C94  1  0.78110000  0.24820000  0.35000000  1.0 -0.07685941
C  C95  1  0.21890000  0.74820000  0.15000000  1.0 -0.07685941
C  C96  1  0.21890000  0.25180000  0.85000000  1.0 -0.07685941
C  C97  1  0.25230000  0.19660000  0.26300000  1.0 -0.0167699326
C  C98  1  0.25230000  0.80340000  0.73700000  1.0 -0.0167699326
C  C99  1  0.74770000  0.30340000  0.76300000  1.0 -0.0167699326
C  C100  1  0.74770000  0.69660000  0.23700000  1.0 -0.0167699326
C  C101  1  0.74770000  0.80340000  0.73700000  1.0 -0.0167699326
C  C102  1  0.74770000  0.19660000  0.26300000  1.0 -0.0167699326
C  C103  1  0.25230000  0.69660000  0.23700000  1.0 -0.0167699326
C  C104  1  0.25230000  0.30340000  0.76300000  1.0 -0.0167699326
C  C105  1  0.13350000  0.27490000  0.31870000  1.0 -0.0031997669
C  C106  1  0.13350000  0.72510000  0.68130000  1.0 -0.0031997669
C  C107  1  0.86650000  0.22510000  0.81870000  1.0 -0.0031997669
C  C108  1  0.86650000  0.77490000  0.18130000  1.0 -0.0031997669
C  C109  1  0.86650000  0.72510000  0.68130000  1.0 -0.0031997669
C  C110  1  0.86650000  0.27490000  0.31870000  1.0 -0.0031997669
C  C111  1  0.13350000  0.77490000  0.18130000  1.0 -0.0031997669
C  C112  1  0.13350000  0.22510000  0.81870000  1.0 -0.0031997669
C  C113  1  0.88380000  0.21460000  0.64300000  1.0 -0.1296242136
C  C114  1  0.88380000  0.78540000  0.35700000  1.0 -0.1296242136
C  C115  1  0.11620000  0.28540000  0.14300000  1.0 -0.1296242136
C  C116  1  0.11620000  0.71460000  0.85700000  1.0 -0.1296242136
C  C117  1  0.11620000  0.78540000  0.35700000  1.0 -0.1296242136
C  C118  1  0.11620000  0.21460000  0.64300000  1.0 -0.1296242136
C  C119  1  0.88380000  0.71460000  0.85700000  1.0 -0.1296242136
C  C120  1  0.88380000  0.28540000  0.14300000  1.0 -0.1296242136
C  C121  1  0.79150000  0.19900000  0.61030000  1.0 -0.1449037302
C  C122  1  0.79150000  0.80100000  0.38970000  1.0 -0.1449037302
C  C123  1  0.20850000  0.30100000  0.11030000  1.0 -0.1449037302
C  C124  1  0.20850000  0.69900000  0.88970000  1.0 -0.1449037302
C  C125  1  0.20850000  0.80100000  0.38970000  1.0 -0.1449037302
C  C126  1  0.20850000  0.19900000  0.61030000  1.0 -0.1449037302
C  C127  1  0.79150000  0.69900000  0.88970000  1.0 -0.1449037302
C  C128  1  0.79150000  0.30100000  0.11030000  1.0 -0.1449037302
C  C129  1  0.66500000  0.10900000  0.66050000  1.0 -0.0608645616
C  C130  1  0.66500000  0.89100000  0.33950000  1.0 -0.0608645616
C  C131  1  0.33500000  0.39100000  0.16050000  1.0 -0.0608645616
C  C132  1  0.33500000  0.60900000  0.83950000  1.0 -0.0608645616
C  C133  1  0.33500000  0.89100000  0.33950000  1.0 -0.0608645616
C  C134  1  0.33500000  0.10900000  0.66050000  1.0 -0.0608645616
C  C135  1  0.66500000  0.60900000  0.83950000  1.0 -0.0608645616
C  C136  1  0.66500000  0.39100000  0.16050000  1.0 -0.0608645616
C  C137  1  0.76040000  0.13170000  0.69350000  1.0 0.040935439
C  C138  1  0.76040000  0.86830000  0.30650000  1.0 0.040935439
C  C139  1  0.23960000  0.36830000  0.19350000  1.0 0.040935439
C  C140  1  0.23960000  0.63170000  0.80650000  1.0 0.040935439
C  C141  1  0.23960000  0.86830000  0.30650000  1.0 0.040935439
C  C142  1  0.23960000  0.13170000  0.69350000  1.0 0.040935439
C  C143  1  0.76040000  0.63170000  0.80650000  1.0 0.040935439
C  C144  1  0.76040000  0.36830000  0.19350000  1.0 0.040935439
C  C145  1  0.65020000  0.26680000  0.31630000  1.0 -0.07685941
C  C146  1  0.65020000  0.73320000  0.68370000  1.0 -0.07685941
C  C147  1  0.34980000  0.23320000  0.81630000  1.0 -0.07685941
C  C148  1  0.34980000  0.76680000  0.18370000  1.0 -0.07685941
C  C149  1  0.34980000  0.73320000  0.68370000  1.0 -0.07685941
C  C150  1  0.34980000  0.26680000  0.31630000  1.0 -0.07685941
C  C151  1  0.65020000  0.76680000  0.18370000  1.0 -0.07685941
C  C152  1  0.65020000  0.23320000  0.81630000  1.0 -0.07685941
C  C153  1  0.73720000  0.29160000  0.28840000  1.0 -0.0031997669
C  C154  1  0.73720000  0.70840000  0.71160000  1.0 -0.0031997669
C  C155  1  0.26280000  0.20840000  0.78840000  1.0 -0.0031997669
C  C156  1  0.26280000  0.79160000  0.21160000  1.0 -0.0031997669
C  C157  1  0.26280000  0.70840000  0.71160000  1.0 -0.0031997669
C  C158  1  0.26280000  0.29160000  0.28840000  1.0 -0.0031997669
C  C159  1  0.73720000  0.79160000  0.21160000  1.0 -0.0031997669
C  C160  1  0.73720000  0.20840000  0.78840000  1.0 -0.0031997669
C  C161  1  0.86260000  0.16870000  0.29770000  1.0 -0.0077351058
C  C162  1  0.86260000  0.83130000  0.70230000  1.0 -0.0077351058
C  C163  1  0.13740000  0.33130000  0.79770000  1.0 -0.0077351058
C  C164  1  0.13740000  0.66870000  0.20230000  1.0 -0.0077351058
C  C165  1  0.13740000  0.83130000  0.70230000  1.0 -0.0077351058
C  C166  1  0.13740000  0.16870000  0.29770000  1.0 -0.0077351058
C  C167  1  0.86260000  0.66870000  0.20230000  1.0 -0.0077351058
C  C168  1  0.86260000  0.33130000  0.79770000  1.0 -0.0077351058
C  C169  1  0.78260000  0.13740000  0.32900000  1.0 -0.1616052497
C  C170  1  0.78260000  0.86260000  0.67100000  1.0 -0.1616052497
C  C171  1  0.21740000  0.36260000  0.82900000  1.0 -0.1616052497
C  C172  1  0.21740000  0.63740000  0.17100000  1.0 -0.1616052497
C  C173  1  0.21740000  0.86260000  0.67100000  1.0 -0.1616052497
C  C174  1  0.21740000  0.13740000  0.32900000  1.0 -0.1616052497
C  C175  1  0.78260000  0.63740000  0.17100000  1.0 -0.1616052497
C  C176  1  0.78260000  0.36260000  0.82900000  1.0 -0.1616052497
S  S1  1  0.34802000  0.10103000  0.53108000  1.0 0.040935439
S  S2  1  0.34802000  0.89897000  0.46892000  1.0 0.040935439
S  S3  1  0.65198000  0.39897000  0.03108000  1.0 0.040935439
S  S4  1  0.65198000  0.60103000  0.96892000  1.0 0.040935439
S  S5  1  0.65198000  0.89897000  0.46892000  1.0 0.040935439
S  S6  1  0.65198000  0.10103000  0.53108000  1.0 0.040935439
S  S7  1  0.34802000  0.60103000  0.96892000  1.0 0.040935439
S  S8  1  0.34802000  0.39897000  0.03108000  1.0 0.040935439
S  S9  1  0.34781000  0.11959000  0.42317000  1.0 0.040935439
S  S10  1  0.34781000  0.88041000  0.57683000  1.0 0.040935439
S  S11  1  0.65219000  0.38041000  0.92317000  1.0 0.040935439
S  S12  1  0.65219000  0.61959000  0.07683000  1.0 0.040935439
S  S13  1  0.65219000  0.88041000  0.57683000  1.0 0.040935439
S  S14  1  0.65219000  0.11959000  0.42317000  1.0 0.040935439
S  S15  1  0.34781000  0.61959000  0.07683000  1.0 0.040935439
S  S16  1  0.34781000  0.38041000  0.92317000  1.0 0.040935439
N  N1  1  0.14540000  0.18350000  0.68730000  1.0 -0.0608645616
N  N2  1  0.14540000  0.81650000  0.31270000  1.0 -0.0608645616
N  N3  1  0.85460000  0.31650000  0.18730000  1.0 -0.0608645616
N  N4  1  0.85460000  0.68350000  0.81270000  1.0 -0.0608645616
N  N5  1  0.85460000  0.81650000  0.31270000  1.0 -0.0608645616
N  N6  1  0.85460000  0.18350000  0.68730000  1.0 -0.0608645616
N  N7  1  0.14540000  0.68350000  0.81270000  1.0 -0.0608645616
N  N8  1  0.14540000  0.31650000  0.18730000  1.0 -0.0608645616
N  N9  1  0.00000000  0.10360000  0.75780000  1.0 -0.526621129
N  N10  1  0.00000000  0.89640000  0.24220000  1.0 -0.526621129
N  N11  1  0.00000000  0.39640000  0.25780000  1.0 -0.526621129
N  N12  1  0.00000000  0.60360000  0.74220000  1.0 -0.526621129
N  N13  1  0.85810000  0.25270000  0.77542000  1.0 -0.150393943
N  N14  1  0.85810000  0.74730000  0.22458000  1.0 -0.150393943
N  N15  1  0.14190000  0.24730000  0.27542000  1.0 -0.150393943
N  N16  1  0.14190000  0.75270000  0.72458000  1.0 -0.150393943
N  N17  1  0.14190000  0.74730000  0.22458000  1.0 -0.150393943
N  N18  1  0.14190000  0.25270000  0.77542000  1.0 -0.150393943
N  N19  1  0.85810000  0.75270000  0.72458000  1.0 -0.150393943
N  N20  1  0.85810000  0.24730000  0.27542000  1.0 -0.150393943
N  N21  1  0.00000000  0.33340000  0.70790000  1.0 -0.538056146
N  N22  1  0.00000000  0.66666667  0.29210000  1.0 -0.538056146
N  N23  1  0.00000000  0.16660000  0.20790000  1.0 -0.538056146
N  N24  1  0.00000000  0.83340000  0.79210000  1.0 -0.538056146
N  N25  1  0.00000000  0.98400000  0.81280000  1.0 -0.3623438884
N  N26  1  0.00000000  0.01600000  0.18720000  1.0 -0.3623438884
N  N27  1  0.00000000  0.51600000  0.31280000  1.0 -0.3623438884
N  N28  1  0.00000000  0.48400000  0.68720000  1.0 -0.3623438884
