# DDEC6 charges by PACMAN v1.1 (https://github.com/mtap-research/PACMAN-charge/)
data_WASNIO_FSR_pacman
_symmetry_space_group_name_H-M   'P 1'
_cell_length_a   8.90230000
_cell_length_b   8.73620000
_cell_length_c   25.10120000
_cell_angle_alpha   90.00000000
_cell_angle_beta   106.97600000
_cell_angle_gamma   90.00000000
_symmetry_Int_Tables_number   1
_chemical_formula_structural   CuH18C14(NO)4
_chemical_formula_sum   'Cu4 H72 C56 N16 O16'
_cell_volume   1867.11543449
_cell_formula_units_Z   4
loop_
 _symmetry_equiv_pos_site_id
 _symmetry_equiv_pos_as_xyz
  1  'x, y, z'
loop_
 _atom_site_type_symbol
 _atom_site_label
 _atom_site_symmetry_multiplicity
 _atom_site_fract_x
 _atom_site_fract_y
 _atom_site_fract_z
 _atom_site_occupancy
 _atom_site_charge
Cu  Cu1  1  0.00000000  0.28734000  0.75000000  1.0 0.7417089188
Cu  Cu2  1  0.00000000  0.71266000  0.25000000  1.0 0.7417089188
Cu  Cu3  1  0.00000000  0.00000000  0.50000000  1.0 0.7417089188
Cu  Cu4  1  0.00000000  0.00000000  0.00000000  1.0 0.7417089188
H  H1  1  0.07920000  0.99940000  0.62970000  1.0 0.1272201383
H  H2  1  0.92080000  0.99940000  0.87030000  1.0 0.1272201383
H  H3  1  0.92080000  0.00060000  0.37030000  1.0 0.1272201383
H  H4  1  0.07920000  0.00060000  0.12970000  1.0 0.1272201383
H  H5  1  0.30640000  0.78440000  0.54010000  1.0 0.1272201383
H  H6  1  0.69360000  0.78440000  0.95990000  1.0 0.1272201383
H  H7  1  0.69360000  0.21560000  0.45990000  1.0 0.1272201383
H  H8  1  0.30640000  0.21560000  0.04010000  1.0 0.1272201383
H  H9  1  0.43550000  0.72040000  0.63800000  1.0 0.1272201383
H  H10  1  0.56450000  0.72040000  0.86200000  1.0 0.1272201383
H  H11  1  0.56450000  0.27960000  0.36200000  1.0 0.1272201383
H  H12  1  0.43550000  0.27960000  0.13800000  1.0 0.1272201383
H  H13  1  0.20270000  0.88270000  0.72430000  1.0 0.136604234
H  H14  1  0.79730000  0.88270000  0.77570000  1.0 0.136604234
H  H15  1  0.79730000  0.11730000  0.27570000  1.0 0.136604234
H  H16  1  0.20270000  0.11730000  0.22430000  1.0 0.136604234
H  H17  1  0.31530000  0.74410000  0.72670000  1.0 0.1106744184
H  H18  1  0.68470000  0.74410000  0.77330000  1.0 0.1106744184
H  H19  1  0.68470000  0.25590000  0.27330000  1.0 0.1106744184
H  H20  1  0.31530000  0.25590000  0.22670000  1.0 0.1106744184
H  H21  1  0.43710000  0.91450000  0.78930000  1.0 0.1106744184
H  H22  1  0.56290000  0.91450000  0.71070000  1.0 0.1106744184
H  H23  1  0.56290000  0.08550000  0.21070000  1.0 0.1106744184
H  H24  1  0.43710000  0.08550000  0.28930000  1.0 0.1106744184
H  H25  1  0.39650000  0.04720000  0.74640000  1.0 0.1106744184
H  H26  1  0.60350000  0.04720000  0.75360000  1.0 0.1106744184
H  H27  1  0.60350000  0.95280000  0.25360000  1.0 0.1106744184
H  H28  1  0.39650000  0.95280000  0.24640000  1.0 0.1106744184
H  H29  1  0.95940000  0.34620000  0.62370000  1.0 0.1192863685
H  H30  1  0.04060000  0.34620000  0.87630000  1.0 0.1192863685
H  H31  1  0.04060000  0.65380000  0.37630000  1.0 0.1192863685
H  H32  1  0.95940000  0.65380000  0.12370000  1.0 0.1192863685
H  H33  1  0.34860000  0.35210000  0.74510000  1.0 0.1192863685
H  H34  1  0.65140000  0.35210000  0.75490000  1.0 0.1192863685
H  H35  1  0.65140000  0.64790000  0.25490000  1.0 0.1192863685
H  H36  1  0.34860000  0.64790000  0.24510000  1.0 0.1192863685
H  H37  1  0.41540000  0.41400000  0.65920000  1.0 0.1272201383
H  H38  1  0.58460000  0.41400000  0.84080000  1.0 0.1272201383
H  H39  1  0.58460000  0.58600000  0.34080000  1.0 0.1272201383
H  H40  1  0.41540000  0.58600000  0.15920000  1.0 0.1272201383
H  H41  1  0.24430000  0.48060000  0.55700000  1.0 0.1106744184
H  H42  1  0.75570000  0.48060000  0.94300000  1.0 0.1106744184
H  H43  1  0.75570000  0.51940000  0.44300000  1.0 0.1106744184
H  H44  1  0.24430000  0.51940000  0.05700000  1.0 0.1106744184
H  H45  1  0.17130000  0.31670000  0.54370000  1.0 0.1272201383
H  H46  1  0.82870000  0.31670000  0.95630000  1.0 0.1272201383
H  H47  1  0.82870000  0.68330000  0.45630000  1.0 0.1272201383
H  H48  1  0.17130000  0.68330000  0.04370000  1.0 0.1272201383
H  H49  1  0.91940000  0.41580000  0.53160000  1.0 0.1106744184
H  H50  1  0.08060000  0.41580000  0.96840000  1.0 0.1106744184
H  H51  1  0.08060000  0.58420000  0.46840000  1.0 0.1106744184
H  H52  1  0.91940000  0.58420000  0.03160000  1.0 0.1106744184
H  H53  1  0.98990000  0.58000000  0.54810000  1.0 0.1106744184
H  H54  1  0.01010000  0.58000000  0.95190000  1.0 0.1106744184
H  H55  1  0.01010000  0.42000000  0.45190000  1.0 0.1106744184
H  H56  1  0.98990000  0.42000000  0.04810000  1.0 0.1106744184
H  H57  1  0.54710000  0.98200000  0.55010000  1.0 0.1192863685
H  H58  1  0.45290000  0.98200000  0.94990000  1.0 0.1192863685
H  H59  1  0.45290000  0.01800000  0.44990000  1.0 0.1192863685
H  H60  1  0.54710000  0.01800000  0.05010000  1.0 0.1192863685
H  H61  1  0.65770000  0.90220000  0.60270000  1.0 0.1192863685
H  H62  1  0.34230000  0.90220000  0.89730000  1.0 0.1192863685
H  H63  1  0.34230000  0.09780000  0.39730000  1.0 0.1192863685
H  H64  1  0.65770000  0.09780000  0.10270000  1.0 0.1192863685
H  H65  1  0.55960000  0.14520000  0.61940000  1.0 0.1106744184
H  H66  1  0.44040000  0.14520000  0.88060000  1.0 0.1106744184
H  H67  1  0.44040000  0.85480000  0.38060000  1.0 0.1106744184
H  H68  1  0.55960000  0.85480000  0.11940000  1.0 0.1106744184
H  H69  1  0.66590000  0.21930000  0.58660000  1.0 0.1272201383
H  H70  1  0.33410000  0.21930000  0.91340000  1.0 0.1272201383
H  H71  1  0.33410000  0.78070000  0.41340000  1.0 0.1272201383
H  H72  1  0.66590000  0.78070000  0.08660000  1.0 0.1272201383
C  C1  1  0.15130000  0.93860000  0.61910000  1.0 0.1106744184
C  C2  1  0.84870000  0.93860000  0.88090000  1.0 0.1106744184
C  C3  1  0.84870000  0.06140000  0.38090000  1.0 0.1106744184
C  C4  1  0.15130000  0.06140000  0.11910000  1.0 0.1106744184
C  C5  1  0.27680000  0.82020000  0.57040000  1.0 -0.0396955057
C  C6  1  0.72320000  0.82020000  0.92960000  1.0 -0.0396955057
C  C7  1  0.72320000  0.17980000  0.42960000  1.0 -0.0396955057
C  C8  1  0.27680000  0.17980000  0.07040000  1.0 -0.0396955057
C  C9  1  0.34880000  0.78400000  0.62440000  1.0 -0.119545587
C  C10  1  0.65120000  0.78400000  0.87560000  1.0 -0.119545587
C  C11  1  0.65120000  0.21600000  0.37560000  1.0 -0.119545587
C  C12  1  0.34880000  0.21600000  0.12440000  1.0 -0.119545587
C  C13  1  0.29750000  0.85070000  0.71580000  1.0 -0.1310949655
C  C14  1  0.70250000  0.85070000  0.78420000  1.0 -0.1310949655
C  C15  1  0.70250000  0.14930000  0.28420000  1.0 -0.1310949655
C  C16  1  0.29750000  0.14930000  0.21580000  1.0 -0.1310949655
C  C17  1  0.43050000  0.94130000  0.75120000  1.0 -0.1854693374
C  C18  1  0.56950000  0.94130000  0.74880000  1.0 -0.1854693374
C  C19  1  0.56950000  0.05870000  0.24880000  1.0 -0.1854693374
C  C20  1  0.43050000  0.05870000  0.25120000  1.0 -0.1854693374
C  C21  1  0.06497000  0.35490000  0.64347000  1.0 0.1003109136
C  C22  1  0.93503000  0.35490000  0.85653000  1.0 0.1003109136
C  C23  1  0.93503000  0.64510000  0.35653000  1.0 0.1003109136
C  C24  1  0.06497000  0.64510000  0.14347000  1.0 0.1003109136
C  C25  1  0.27736000  0.35810000  0.70966000  1.0 -0.0396955057
C  C26  1  0.72264000  0.35810000  0.79034000  1.0 -0.0396955057
C  C27  1  0.72264000  0.64190000  0.29034000  1.0 -0.0396955057
C  C28  1  0.27736000  0.64190000  0.20966000  1.0 -0.0396955057
C  C29  1  0.31605000  0.39290000  0.66235000  1.0 -0.119545587
C  C30  1  0.68395000  0.39290000  0.83765000  1.0 -0.1310949655
C  C31  1  0.68395000  0.60710000  0.33765000  1.0 -0.119545587
C  C32  1  0.31605000  0.60710000  0.16235000  1.0 -0.1310949655
C  C33  1  0.16063000  0.41420000  0.56073000  1.0 -0.114119426
C  C34  1  0.83937000  0.41420000  0.93927000  1.0 -0.114119426
C  C35  1  0.83937000  0.58580000  0.43927000  1.0 -0.114119426
C  C36  1  0.16063000  0.58580000  0.06073000  1.0 -0.114119426
C  C37  1  0.00357000  0.48480000  0.53017000  1.0 -0.1825841672
C  C38  1  0.99643000  0.48480000  0.96983000  1.0 -0.1825841672
C  C39  1  0.99643000  0.51520000  0.46983000  1.0 -0.1825841672
C  C40  1  0.00357000  0.51520000  0.03017000  1.0 -0.1825841672
C  C41  1  0.77185000  0.96530000  0.54705000  1.0 0.5889061386
C  C42  1  0.22815000  0.96530000  0.95295000  1.0 0.5889061386
C  C43  1  0.22815000  0.03470000  0.45295000  1.0 0.5889061386
C  C44  1  0.77185000  0.03470000  0.04705000  1.0 0.5889061386
C  C45  1  0.64993000  0.98750000  0.57733000  1.0 -0.2893342953
C  C46  1  0.35007000  0.98750000  0.92267000  1.0 -0.2893342953
C  C47  1  0.35007000  0.01250000  0.42267000  1.0 -0.2893342953
C  C48  1  0.64993000  0.01250000  0.07733000  1.0 -0.2893342953
C  C49  1  0.65744000  0.13370000  0.61014000  1.0 -0.3017657405
C  C50  1  0.34256000  0.13370000  0.88986000  1.0 -0.3017657405
C  C51  1  0.34256000  0.86630000  0.38986000  1.0 -0.3017657405
C  C52  1  0.65744000  0.86630000  0.11014000  1.0 -0.3017657405
C  C53  1  0.79148000  0.14200000  0.66308000  1.0 0.5889061386
C  C54  1  0.20852000  0.14200000  0.83692000  1.0 0.5889061386
C  C55  1  0.20852000  0.85800000  0.33692000  1.0 0.5889061386
C  C56  1  0.79148000  0.85800000  0.16308000  1.0 0.5889061386
N  N1  1  0.15277000  0.91830000  0.56747000  1.0 -0.2893342953
N  N2  1  0.84723000  0.91830000  0.93253000  1.0 -0.2893342953
N  N3  1  0.84723000  0.08170000  0.43253000  1.0 -0.2893342953
N  N4  1  0.15277000  0.08170000  0.06747000  1.0 -0.2893342953
N  N5  1  0.26801000  0.86010000  0.65481000  1.0 0.0407647485
N  N6  1  0.73199000  0.86010000  0.84519000  1.0 0.0407647485
N  N7  1  0.73199000  0.13990000  0.34519000  1.0 0.0407647485
N  N8  1  0.26801000  0.13990000  0.15481000  1.0 0.0407647485
N  N9  1  0.12207000  0.33390000  0.69797000  1.0 -0.2893342953
N  N10  1  0.87793000  0.33390000  0.80203000  1.0 -0.2893342953
N  N11  1  0.87793000  0.66610000  0.30203000  1.0 -0.2893342953
N  N12  1  0.12207000  0.66610000  0.19797000  1.0 -0.2893342953
N  N13  1  0.17793000  0.38990000  0.62073000  1.0 0.0516886482
N  N14  1  0.82207000  0.38990000  0.87927000  1.0 0.0516886482
N  N15  1  0.82207000  0.61010000  0.37927000  1.0 0.0516886482
N  N16  1  0.17793000  0.61010000  0.12073000  1.0 0.0516886482
O  O1  1  0.88136000  0.03430000  0.68006000  1.0 -0.5639941847
O  O2  1  0.11864000  0.03430000  0.81994000  1.0 -0.5639941847
O  O3  1  0.11864000  0.96570000  0.31994000  1.0 -0.5639941847
O  O4  1  0.88136000  0.96570000  0.18006000  1.0 -0.5639941847
O  O5  1  0.80624000  0.27150000  0.68844000  1.0 -0.5728567845
O  O6  1  0.19376000  0.27150000  0.81156000  1.0 -0.5728567845
O  O7  1  0.19376000  0.72850000  0.31156000  1.0 -0.5728567845
O  O8  1  0.80624000  0.72850000  0.18844000  1.0 -0.5728567845
O  O9  1  0.86597000  0.07410000  0.54627000  1.0 -0.5459370023
O  O10  1  0.13403000  0.07410000  0.95373000  1.0 -0.5459370023
O  O11  1  0.13403000  0.92590000  0.45373000  1.0 -0.5459370023
O  O12  1  0.86597000  0.92590000  0.04627000  1.0 -0.5459370023
O  O13  1  0.77275000  0.84250000  0.52305000  1.0 -0.5846700228
O  O14  1  0.22725000  0.84250000  0.97695000  1.0 -0.5846700228
O  O15  1  0.22725000  0.15750000  0.47695000  1.0 -0.5846700228
O  O16  1  0.77275000  0.15750000  0.02305000  1.0 -0.5846700228
