# DDEC6 charges by PACMAN v1.1 (https://github.com/mtap-research/PACMAN-charge/)
data_WASPAK_ion_pacman
_symmetry_space_group_name_H-M   'P 1'
_cell_length_a   9.73310000
_cell_length_b   15.52710000
_cell_length_c   29.95600000
_cell_angle_alpha   90.00000000
_cell_angle_beta   90.00000000
_cell_angle_gamma   90.00000000
_symmetry_Int_Tables_number   1
_chemical_formula_structural   Fe2H32C56S8I3N14
_chemical_formula_sum   'Fe4 H64 C112 S16 I6 N28'
_cell_volume   4527.15493035
_cell_formula_units_Z   2
loop_
 _symmetry_equiv_pos_site_id
 _symmetry_equiv_pos_as_xyz
  1  'x, y, z'
loop_
 _atom_site_type_symbol
 _atom_site_label
 _atom_site_symmetry_multiplicity
 _atom_site_fract_x
 _atom_site_fract_y
 _atom_site_fract_z
 _atom_site_occupancy
 _atom_site_charge
Fe  Fe1  1  0.05020000  0.25000000  0.25000000  1.0 0.4782096545
Fe  Fe2  1  0.94980000  0.75000000  0.25000000  1.0 0.4782096545
Fe  Fe3  1  0.94980000  0.75000000  0.75000000  1.0 0.4782096545
Fe  Fe4  1  0.05020000  0.25000000  0.75000000  1.0 0.4782096545
H  H1  1  0.99410000  0.27540000  0.15570000  1.0 0.1098500478
H  H2  1  0.00590000  0.77540000  0.34430000  1.0 0.1098500478
H  H3  1  0.00590000  0.72460000  0.15570000  1.0 0.1098500478
H  H4  1  0.99410000  0.22460000  0.34430000  1.0 0.1098500478
H  H5  1  0.00590000  0.72460000  0.84430000  1.0 0.1098500478
H  H6  1  0.99410000  0.22460000  0.65570000  1.0 0.1098500478
H  H7  1  0.99410000  0.27540000  0.84430000  1.0 0.1098500478
H  H8  1  0.00590000  0.77540000  0.65570000  1.0 0.1098500478
H  H9  1  0.27400000  0.05240000  0.14450000  1.0 0.1318779508
H  H10  1  0.72600000  0.55240000  0.35550000  1.0 0.1318779508
H  H11  1  0.72600000  0.94760000  0.14450000  1.0 0.1318779508
H  H12  1  0.27400000  0.44760000  0.35550000  1.0 0.1318779508
H  H13  1  0.72600000  0.94760000  0.85550000  1.0 0.1318779508
H  H14  1  0.27400000  0.44760000  0.64450000  1.0 0.1318779508
H  H15  1  0.27400000  0.05240000  0.85550000  1.0 0.1318779508
H  H16  1  0.72600000  0.55240000  0.64450000  1.0 0.1318779508
H  H17  1  0.12370000  0.09770000  0.19680000  1.0 0.1098500478
H  H18  1  0.87630000  0.59770000  0.30320000  1.0 0.1098500478
H  H19  1  0.87630000  0.90230000  0.19680000  1.0 0.1098500478
H  H20  1  0.12370000  0.40230000  0.30320000  1.0 0.1098500478
H  H21  1  0.87630000  0.90230000  0.80320000  1.0 0.1098500478
H  H22  1  0.12370000  0.40230000  0.69680000  1.0 0.1098500478
H  H23  1  0.12370000  0.09770000  0.80320000  1.0 0.1098500478
H  H24  1  0.87630000  0.59770000  0.69680000  1.0 0.1098500478
H  H25  1  0.83850000  0.24080000  0.10160000  1.0 0.1318779508
H  H26  1  0.16150000  0.74080000  0.39840000  1.0 0.1318779508
H  H27  1  0.16150000  0.75920000  0.10160000  1.0 0.1318779508
H  H28  1  0.83850000  0.25920000  0.39840000  1.0 0.1318779508
H  H29  1  0.16150000  0.75920000  0.89840000  1.0 0.1318779508
H  H30  1  0.83850000  0.25920000  0.60160000  1.0 0.1318779508
H  H31  1  0.83850000  0.24080000  0.89840000  1.0 0.1318779508
H  H32  1  0.16150000  0.74080000  0.60160000  1.0 0.1318779508
H  H33  1  0.46760000  0.28190000  0.15710000  1.0 0.137658147
H  H34  1  0.53240000  0.78190000  0.34290000  1.0 0.137658147
H  H35  1  0.53240000  0.71810000  0.15710000  1.0 0.137658147
H  H36  1  0.46760000  0.21810000  0.34290000  1.0 0.137658147
H  H37  1  0.53240000  0.71810000  0.84290000  1.0 0.137658147
H  H38  1  0.46760000  0.21810000  0.65710000  1.0 0.137658147
H  H39  1  0.46760000  0.28190000  0.84290000  1.0 0.137658147
H  H40  1  0.53240000  0.78190000  0.65710000  1.0 0.137658147
H  H41  1  0.78370000  0.14520000  0.24400000  1.0 0.1042058343
H  H42  1  0.21630000  0.64520000  0.25600000  1.0 0.1042058343
H  H43  1  0.21630000  0.85480000  0.24400000  1.0 0.1042058343
H  H44  1  0.78370000  0.35480000  0.25600000  1.0 0.1042058343
H  H45  1  0.21630000  0.85480000  0.75600000  1.0 0.1042058343
H  H46  1  0.78370000  0.35480000  0.74400000  1.0 0.1042058343
H  H47  1  0.78370000  0.14520000  0.75600000  1.0 0.1042058343
H  H48  1  0.21630000  0.64520000  0.74400000  1.0 0.1042058343
H  H49  1  0.30620000  0.31740000  0.20920000  1.0 0.1098500478
H  H50  1  0.69380000  0.81740000  0.29080000  1.0 0.1098500478
H  H51  1  0.69380000  0.68260000  0.20920000  1.0 0.1098500478
H  H52  1  0.30620000  0.18260000  0.29080000  1.0 0.1098500478
H  H53  1  0.69380000  0.68260000  0.79080000  1.0 0.1098500478
H  H54  1  0.30620000  0.18260000  0.70920000  1.0 0.1098500478
H  H55  1  0.30620000  0.31740000  0.79080000  1.0 0.1098500478
H  H56  1  0.69380000  0.81740000  0.70920000  1.0 0.1098500478
H  H57  1  0.62200000  0.10770000  0.19150000  1.0 0.1318779508
H  H58  1  0.37800000  0.60770000  0.30850000  1.0 0.1318779508
H  H59  1  0.37800000  0.89230000  0.19150000  1.0 0.1318779508
H  H60  1  0.62200000  0.39230000  0.30850000  1.0 0.1318779508
H  H61  1  0.37800000  0.89230000  0.80850000  1.0 0.1318779508
H  H62  1  0.62200000  0.39230000  0.69150000  1.0 0.1318779508
H  H63  1  0.62200000  0.10770000  0.80850000  1.0 0.1318779508
H  H64  1  0.37800000  0.60770000  0.69150000  1.0 0.1318779508
C  C1  1  0.54210000  0.11260000  0.02360000  1.0 -0.1065052742
C  C2  1  0.45790000  0.61260000  0.47640000  1.0 -0.1065052742
C  C3  1  0.45790000  0.88740000  0.02360000  1.0 -0.1065052742
C  C4  1  0.54210000  0.38740000  0.47640000  1.0 -0.1065052742
C  C5  1  0.45790000  0.88740000  0.97640000  1.0 -0.1065052742
C  C6  1  0.54210000  0.38740000  0.52360000  1.0 -0.1065052742
C  C7  1  0.54210000  0.11260000  0.97640000  1.0 -0.1065052742
C  C8  1  0.45790000  0.61260000  0.52360000  1.0 -0.1065052742
C  C9  1  0.91920000  0.24120000  0.16320000  1.0 0.0800910468
C  C10  1  0.08080000  0.74120000  0.33680000  1.0 0.0800910468
C  C11  1  0.08080000  0.75880000  0.16320000  1.0 0.0800910468
C  C12  1  0.91920000  0.25880000  0.33680000  1.0 0.0800910468
C  C13  1  0.08080000  0.75880000  0.83680000  1.0 0.0800910468
C  C14  1  0.91920000  0.25880000  0.66320000  1.0 0.0800910468
C  C15  1  0.91920000  0.24120000  0.83680000  1.0 0.0800910468
C  C16  1  0.08080000  0.74120000  0.66320000  1.0 0.0800910468
C  C17  1  0.48130000  0.14110000  0.10470000  1.0 -0.0823362808
C  C18  1  0.51870000  0.64110000  0.39530000  1.0 -0.0823362808
C  C19  1  0.51870000  0.85890000  0.10470000  1.0 -0.0823362808
C  C20  1  0.48130000  0.35890000  0.39530000  1.0 -0.0823362808
C  C21  1  0.51870000  0.85890000  0.89530000  1.0 -0.0823362808
C  C22  1  0.48130000  0.35890000  0.60470000  1.0 -0.0823362808
C  C23  1  0.48130000  0.14110000  0.89530000  1.0 -0.0823362808
C  C24  1  0.51870000  0.64110000  0.60470000  1.0 -0.0823362808
C  C25  1  0.28140000  0.10750000  0.15640000  1.0 -0.2020622877
C  C26  1  0.71860000  0.60750000  0.34360000  1.0 -0.2020622877
C  C27  1  0.71860000  0.89250000  0.15640000  1.0 -0.2020622877
C  C28  1  0.28140000  0.39250000  0.34360000  1.0 -0.2020622877
C  C29  1  0.71860000  0.89250000  0.84360000  1.0 -0.2020622877
C  C30  1  0.28140000  0.39250000  0.65640000  1.0 -0.2020622877
C  C31  1  0.28140000  0.10750000  0.84360000  1.0 -0.2020622877
C  C32  1  0.71860000  0.60750000  0.65640000  1.0 -0.2020622877
C  C33  1  0.19290000  0.13520000  0.18780000  1.0 0.0596582071
C  C34  1  0.80710000  0.63520000  0.31220000  1.0 0.0596582071
C  C35  1  0.80710000  0.86480000  0.18780000  1.0 0.0596582071
C  C36  1  0.19290000  0.36480000  0.31220000  1.0 0.0596582071
C  C37  1  0.80710000  0.86480000  0.81220000  1.0 0.0596582071
C  C38  1  0.19290000  0.36480000  0.68780000  1.0 0.0596582071
C  C39  1  0.19290000  0.13520000  0.81220000  1.0 0.0596582071
C  C40  1  0.80710000  0.63520000  0.68780000  1.0 0.0596582071
C  C41  1  0.82480000  0.22030000  0.13050000  1.0 -0.1943553084
C  C42  1  0.17520000  0.72030000  0.36950000  1.0 -0.1943553084
C  C43  1  0.17520000  0.77970000  0.13050000  1.0 -0.1943553084
C  C44  1  0.82480000  0.27970000  0.36950000  1.0 -0.1943553084
C  C45  1  0.17520000  0.77970000  0.86950000  1.0 -0.1943553084
C  C46  1  0.82480000  0.27970000  0.63050000  1.0 -0.1943553084
C  C47  1  0.82480000  0.22030000  0.86950000  1.0 -0.1943553084
C  C48  1  0.17520000  0.72030000  0.63050000  1.0 -0.1943553084
C  C49  1  0.61680000  0.14500000  0.10400000  1.0 -0.0823362808
C  C50  1  0.38320000  0.64500000  0.39600000  1.0 -0.0823362808
C  C51  1  0.38320000  0.85500000  0.10400000  1.0 -0.0823362808
C  C52  1  0.61680000  0.35500000  0.39600000  1.0 -0.0823362808
C  C53  1  0.38320000  0.85500000  0.89600000  1.0 -0.0823362808
C  C54  1  0.61680000  0.35500000  0.60400000  1.0 -0.0823362808
C  C55  1  0.61680000  0.14500000  0.89600000  1.0 -0.0823362808
C  C56  1  0.38320000  0.64500000  0.60400000  1.0 -0.0823362808
C  C57  1  0.71200000  0.17060000  0.13920000  1.0 0.1191698412
C  C58  1  0.28800000  0.67060000  0.36080000  1.0 0.1191698412
C  C59  1  0.28800000  0.82940000  0.13920000  1.0 0.1191698412
C  C60  1  0.71200000  0.32940000  0.36080000  1.0 0.1191698412
C  C61  1  0.28800000  0.82940000  0.86080000  1.0 0.1191698412
C  C62  1  0.71200000  0.32940000  0.63920000  1.0 0.1191698412
C  C63  1  0.71200000  0.17060000  0.86080000  1.0 0.1191698412
C  C64  1  0.28800000  0.67060000  0.63920000  1.0 0.1191698412
C  C65  1  0.38700000  0.16510000  0.14190000  1.0 0.137658147
C  C66  1  0.61300000  0.66510000  0.35810000  1.0 0.137658147
C  C67  1  0.61300000  0.83490000  0.14190000  1.0 0.137658147
C  C68  1  0.38700000  0.33490000  0.35810000  1.0 0.137658147
C  C69  1  0.61300000  0.83490000  0.85810000  1.0 0.1318779508
C  C70  1  0.38700000  0.33490000  0.64190000  1.0 0.137658147
C  C71  1  0.38700000  0.16510000  0.85810000  1.0 0.137658147
C  C72  1  0.61300000  0.66510000  0.64190000  1.0 0.137658147
C  C73  1  0.02550000  0.06990000  0.29250000  1.0 0.3934110055
C  C74  1  0.97450000  0.56990000  0.20750000  1.0 0.3934110055
C  C75  1  0.97450000  0.93010000  0.29250000  1.0 0.3934110055
C  C76  1  0.02550000  0.43010000  0.20750000  1.0 0.3934110055
C  C77  1  0.97450000  0.93010000  0.70750000  1.0 0.3934110055
C  C78  1  0.02550000  0.43010000  0.79250000  1.0 0.3934110055
C  C79  1  0.02550000  0.06990000  0.70750000  1.0 0.3934110055
C  C80  1  0.97450000  0.56990000  0.79250000  1.0 0.3934110055
C  C81  1  0.39680000  0.24370000  0.16370000  1.0 -0.2020622877
C  C82  1  0.60320000  0.74370000  0.33630000  1.0 -0.2020622877
C  C83  1  0.60320000  0.75630000  0.16370000  1.0 -0.2020622877
C  C84  1  0.39680000  0.25630000  0.33630000  1.0 -0.2020622877
C  C85  1  0.60320000  0.75630000  0.83630000  1.0 -0.2020622877
C  C86  1  0.39680000  0.25630000  0.66370000  1.0 -0.2020622877
C  C87  1  0.39680000  0.24370000  0.83630000  1.0 -0.2020622877
C  C88  1  0.60320000  0.74370000  0.66370000  1.0 -0.2020622877
C  C89  1  0.79500000  0.16470000  0.21490000  1.0 0.0596582071
C  C90  1  0.20500000  0.66470000  0.28510000  1.0 0.0596582071
C  C91  1  0.20500000  0.83530000  0.21490000  1.0 0.0596582071
C  C92  1  0.79500000  0.33530000  0.28510000  1.0 0.0596582071
C  C93  1  0.20500000  0.83530000  0.78510000  1.0 0.0596582071
C  C94  1  0.79500000  0.33530000  0.71490000  1.0 0.0596582071
C  C95  1  0.79500000  0.16470000  0.78510000  1.0 0.0596582071
C  C96  1  0.20500000  0.66470000  0.71490000  1.0 0.0596582071
C  C97  1  0.29950000  0.26400000  0.19530000  1.0 0.0725994358
C  C98  1  0.70050000  0.76400000  0.30470000  1.0 0.0725994358
C  C99  1  0.70050000  0.73600000  0.19530000  1.0 0.0725994358
C  C100  1  0.29950000  0.23600000  0.30470000  1.0 0.0725994358
C  C101  1  0.70050000  0.73600000  0.80470000  1.0 0.0725994358
C  C102  1  0.29950000  0.23600000  0.69530000  1.0 0.0725994358
C  C103  1  0.29950000  0.26400000  0.80470000  1.0 0.0725994358
C  C104  1  0.70050000  0.76400000  0.69530000  1.0 0.0725994358
C  C105  1  0.69670000  0.14170000  0.18350000  1.0 -0.2071450607
C  C106  1  0.30330000  0.64170000  0.31650000  1.0 -0.2071450607
C  C107  1  0.30330000  0.85830000  0.18350000  1.0 -0.2071450607
C  C108  1  0.69670000  0.35830000  0.31650000  1.0 -0.2071450607
C  C109  1  0.30330000  0.85830000  0.81650000  1.0 -0.2071450607
C  C110  1  0.69670000  0.35830000  0.68350000  1.0 -0.2071450607
C  C111  1  0.69670000  0.14170000  0.81650000  1.0 -0.2071450607
C  C112  1  0.30330000  0.64170000  0.68350000  1.0 -0.2071450607
S  S1  1  0.69340000  0.11830000  0.05245000  1.0 0.0892916551
S  S2  1  0.30660000  0.61830000  0.44755000  1.0 0.0892916551
S  S3  1  0.30660000  0.88170000  0.05245000  1.0 0.0892916551
S  S4  1  0.69340000  0.38170000  0.44755000  1.0 0.0892916551
S  S5  1  0.30660000  0.88170000  0.94755000  1.0 0.0892916551
S  S6  1  0.69340000  0.38170000  0.55245000  1.0 0.0892916551
S  S7  1  0.69340000  0.11830000  0.94755000  1.0 0.0892916551
S  S8  1  0.30660000  0.61830000  0.55245000  1.0 0.0892916551
S  S9  1  0.39450000  0.10890000  0.05587000  1.0 0.0892916551
S  S10  1  0.60550000  0.60890000  0.44413000  1.0 0.0892916551
S  S11  1  0.60550000  0.89110000  0.05587000  1.0 0.0892916551
S  S12  1  0.39450000  0.39110000  0.44413000  1.0 0.0892916551
S  S13  1  0.60550000  0.89110000  0.94413000  1.0 0.0892916551
S  S14  1  0.39450000  0.39110000  0.55587000  1.0 0.0892916551
S  S15  1  0.39450000  0.10890000  0.94413000  1.0 0.0892916551
S  S16  1  0.60550000  0.60890000  0.55587000  1.0 0.0892916551
I  I1  1  0.00000000  0.50000000  0.50000000  1.0 -0.0113555576
I  I2  1  0.00000000  0.50000000  0.40337000  1.0 -0.3726166536
I  I3  1  0.00000000  0.50000000  0.59663000  1.0 -0.3726166536
I  I4  1  0.00000000  0.00000000  0.00000000  1.0 -0.0113555576
I  I5  1  0.00000000  0.00000000  0.09663000  1.0 -0.3726166536
I  I6  1  0.00000000  0.00000000  0.90337000  1.0 -0.3726166536
N  N1  1  0.04520000  0.13620000  0.27680000  1.0 -0.5093419453
N  N2  1  0.95480000  0.63620000  0.22320000  1.0 -0.5093419453
N  N3  1  0.95480000  0.86380000  0.27680000  1.0 -0.5093419453
N  N4  1  0.04520000  0.36380000  0.22320000  1.0 -0.5093419453
N  N5  1  0.95480000  0.86380000  0.72320000  1.0 -0.5093419453
N  N6  1  0.04520000  0.36380000  0.77680000  1.0 -0.5093419453
N  N7  1  0.04520000  0.13620000  0.72320000  1.0 -0.5093419453
N  N8  1  0.95480000  0.63620000  0.77680000  1.0 -0.5093419453
N  N9  1  0.19760000  0.21330000  0.20720000  1.0 -0.1630508503
N  N10  1  0.80240000  0.71330000  0.29280000  1.0 -0.1630508503
N  N11  1  0.80240000  0.78670000  0.20720000  1.0 -0.1630508503
N  N12  1  0.19760000  0.28670000  0.29280000  1.0 -0.1630508503
N  N13  1  0.80240000  0.78670000  0.79280000  1.0 -0.1630508503
N  N14  1  0.19760000  0.28670000  0.70720000  1.0 -0.1630508503
N  N15  1  0.19760000  0.21330000  0.79280000  1.0 -0.1630508503
N  N16  1  0.80240000  0.71330000  0.70720000  1.0 -0.1630508503
N  N17  1  0.00000000  0.00000000  0.31360000  1.0 -0.4006761511
N  N18  1  0.00000000  0.50000000  0.18640000  1.0 -0.4006761511
N  N19  1  0.00000000  0.00000000  0.68640000  1.0 -0.4006761511
N  N20  1  0.00000000  0.50000000  0.81360000  1.0 -0.4006761511
N  N21  1  0.90650000  0.21380000  0.20560000  1.0 -0.1675786128
N  N22  1  0.09350000  0.71380000  0.29440000  1.0 -0.1675786128
N  N23  1  0.09350000  0.78620000  0.20560000  1.0 -0.1675786128
N  N24  1  0.90650000  0.28620000  0.29440000  1.0 -0.1675786128
N  N25  1  0.09350000  0.78620000  0.79440000  1.0 -0.1675786128
N  N26  1  0.90650000  0.28620000  0.70560000  1.0 -0.1675786128
N  N27  1  0.90650000  0.21380000  0.79440000  1.0 -0.1675786128
N  N28  1  0.09350000  0.71380000  0.70560000  1.0 -0.1675786128
