# DDEC6 charges by PACMAN v1.1 (https://github.com/mtap-research/PACMAN-charge/)
data_WAVRES_ASR_pacman
_symmetry_space_group_name_H-M   'P 1'
_cell_length_a   22.48080000
_cell_length_b   22.48080000
_cell_length_c   22.48080000
_cell_angle_alpha   108.09500000
_cell_angle_beta   108.09500000
_cell_angle_gamma   108.09500000
_symmetry_Int_Tables_number   1
_chemical_formula_structural   In2Co2H19(C4O)9
_chemical_formula_sum   'In12 Co12 H114 C216 O54'
_cell_volume   9164.64715255
_cell_formula_units_Z   6
loop_
 _symmetry_equiv_pos_site_id
 _symmetry_equiv_pos_as_xyz
  1  'x, y, z'
loop_
 _atom_site_type_symbol
 _atom_site_label
 _atom_site_symmetry_multiplicity
 _atom_site_fract_x
 _atom_site_fract_y
 _atom_site_fract_z
 _atom_site_occupancy
 _atom_site_charge
In  In1  1  0.36997000  0.86242000  0.95585000  1.0 0.7393422776
In  In2  1  0.86242000  0.95585000  0.36997000  1.0 0.7276329451
In  In3  1  0.95585000  0.36997000  0.86242000  1.0 0.7393422776
In  In4  1  0.63003000  0.13758000  0.04415000  1.0 0.7393422776
In  In5  1  0.13758000  0.04415000  0.63003000  1.0 0.7393422776
In  In6  1  0.04415000  0.63003000  0.13758000  1.0 0.7393422776
In  In7  1  0.36948000  0.86653000  0.98618000  1.0 0.5201186591
In  In8  1  0.86653000  0.98618000  0.36948000  1.0 0.5395171397
In  In9  1  0.98618000  0.36948000  0.86653000  1.0 0.5395171397
In  In10  1  0.63052000  0.13347000  0.01382000  1.0 0.5395171397
In  In11  1  0.13347000  0.01382000  0.63052000  1.0 0.5201186591
In  In12  1  0.01382000  0.63052000  0.13347000  1.0 0.5395171397
Co  Co1  1  0.45331000  0.03221000  0.96458000  1.0 0.4596781784
Co  Co2  1  0.03221000  0.96458000  0.45331000  1.0 0.4548903161
Co  Co3  1  0.96458000  0.45331000  0.03221000  1.0 0.4596781784
Co  Co4  1  0.54669000  0.96779000  0.03542000  1.0 0.4596781784
Co  Co5  1  0.96779000  0.03542000  0.54669000  1.0 0.4596781784
Co  Co6  1  0.03542000  0.54669000  0.96779000  1.0 0.4596781784
Co  Co7  1  0.45980000  0.04300000  0.01660000  1.0 0.3487589859
Co  Co8  1  0.04300000  0.01660000  0.45980000  1.0 0.3487589859
Co  Co9  1  0.01660000  0.45980000  0.04300000  1.0 0.3487589859
Co  Co10  1  0.54020000  0.95700000  0.98340000  1.0 0.3487589859
Co  Co11  1  0.95700000  0.98340000  0.54020000  1.0 0.3487589859
Co  Co12  1  0.98340000  0.54020000  0.95700000  1.0 0.3487589859
H  H1  1  0.08460000  0.32770000  0.55910000  1.0 0.1117938574
H  H2  1  0.32770000  0.55910000  0.08460000  1.0 0.1117938574
H  H3  1  0.55910000  0.08460000  0.32770000  1.0 0.1117938574
H  H4  1  0.91540000  0.67230000  0.44090000  1.0 0.1117938574
H  H5  1  0.67230000  0.44090000  0.91540000  1.0 0.1117938574
H  H6  1  0.44090000  0.91540000  0.67230000  1.0 0.1117938574
H  H7  1  0.08610000  0.44000000  0.59350000  1.0 0.1211395127
H  H8  1  0.44000000  0.59350000  0.08610000  1.0 0.1211395127
H  H9  1  0.59350000  0.08610000  0.44000000  1.0 0.1211395127
H  H10  1  0.91390000  0.56000000  0.40650000  1.0 0.1211395127
H  H11  1  0.56000000  0.40650000  0.91390000  1.0 0.1211395127
H  H12  1  0.40650000  0.91390000  0.56000000  1.0 0.1211395127
H  H13  1  0.90730000  0.28370000  0.39730000  1.0 0.1117938574
H  H14  1  0.28370000  0.39730000  0.90730000  1.0 0.1117938574
H  H15  1  0.39730000  0.90730000  0.28370000  1.0 0.1117938574
H  H16  1  0.09270000  0.71630000  0.60270000  1.0 0.1117938574
H  H17  1  0.71630000  0.60270000  0.09270000  1.0 0.1117938574
H  H18  1  0.60270000  0.09270000  0.71630000  1.0 0.1117938574
H  H19  1  0.98890000  0.36570000  0.38550000  1.0 0.1117938574
H  H20  1  0.36570000  0.38550000  0.98890000  1.0 0.1117938574
H  H21  1  0.38550000  0.98890000  0.36570000  1.0 0.1117938574
H  H22  1  0.01110000  0.63430000  0.61450000  1.0 0.1117938574
H  H23  1  0.63430000  0.61450000  0.01110000  1.0 0.1117938574
H  H24  1  0.61450000  0.01110000  0.63430000  1.0 0.1117938574
H  H25  1  0.11470000  0.57350000  0.50790000  1.0 0.1117938574
H  H26  1  0.57350000  0.50790000  0.11470000  1.0 0.1117938574
H  H27  1  0.50790000  0.11470000  0.57350000  1.0 0.1117938574
H  H28  1  0.88530000  0.42650000  0.49210000  1.0 0.1117938574
H  H29  1  0.42650000  0.49210000  0.88530000  1.0 0.1117938574
H  H30  1  0.49210000  0.88530000  0.42650000  1.0 0.1117938574
H  H31  1  0.03420000  0.59790000  0.31680000  1.0 0.1315101972
H  H32  1  0.59790000  0.31680000  0.03420000  1.0 0.1315101972
H  H33  1  0.31680000  0.03420000  0.59790000  1.0 0.1315101972
H  H34  1  0.96580000  0.40210000  0.68320000  1.0 0.1315101972
H  H35  1  0.40210000  0.68320000  0.96580000  1.0 0.1315101972
H  H36  1  0.68320000  0.96580000  0.40210000  1.0 0.1315101972
H  H37  1  0.23440000  0.12730000  0.04310000  1.0 0.1211395127
H  H38  1  0.12730000  0.04310000  0.23440000  1.0 0.1211395127
H  H39  1  0.04310000  0.23440000  0.12730000  1.0 0.1211395127
H  H40  1  0.76560000  0.87270000  0.95690000  1.0 0.1211395127
H  H41  1  0.87270000  0.95690000  0.76560000  1.0 0.1211395127
H  H42  1  0.95690000  0.76560000  0.87270000  1.0 0.1211395127
H  H43  1  0.12430000  0.93310000  0.01140000  1.0 0.1211395127
H  H44  1  0.93310000  0.01140000  0.12430000  1.0 0.1211395127
H  H45  1  0.01140000  0.12430000  0.93310000  1.0 0.1211395127
H  H46  1  0.87570000  0.06690000  0.98860000  1.0 0.1211395127
H  H47  1  0.06690000  0.98860000  0.87570000  1.0 0.1211395127
H  H48  1  0.98860000  0.87570000  0.06690000  1.0 0.1211395127
H  H49  1  0.05980000  0.58350000  0.41600000  1.0 0.1211395127
H  H50  1  0.58350000  0.41600000  0.05980000  1.0 0.1211395127
H  H51  1  0.41600000  0.05980000  0.58350000  1.0 0.1211395127
H  H52  1  0.94020000  0.41650000  0.58400000  1.0 0.1211395127
H  H53  1  0.41650000  0.58400000  0.94020000  1.0 0.1211395127
H  H54  1  0.58400000  0.94020000  0.41650000  1.0 0.1211395127
H  H55  1  0.31670000  0.09600000  0.02000000  1.0 0.1211395127
H  H56  1  0.09600000  0.02000000  0.31670000  1.0 0.1211395127
H  H57  1  0.02000000  0.31670000  0.09600000  1.0 0.1211395127
H  H58  1  0.68330000  0.90400000  0.98000000  1.0 0.1211395127
H  H59  1  0.90400000  0.98000000  0.68330000  1.0 0.1211395127
H  H60  1  0.98000000  0.68330000  0.90400000  1.0 0.1211395127
H  H61  1  0.02810000  0.38900000  0.30830000  1.0 0.1211395127
H  H62  1  0.38900000  0.30830000  0.02810000  1.0 0.1211395127
H  H63  1  0.30830000  0.02810000  0.38900000  1.0 0.1211395127
H  H64  1  0.97190000  0.61100000  0.69170000  1.0 0.1211395127
H  H65  1  0.61100000  0.69170000  0.97190000  1.0 0.1211395127
H  H66  1  0.69170000  0.97190000  0.61100000  1.0 0.1211395127
H  H67  1  0.00720000  0.40420000  0.20870000  1.0 0.1211395127
H  H68  1  0.40420000  0.20870000  0.00720000  1.0 0.1211395127
H  H69  1  0.20870000  0.00720000  0.40420000  1.0 0.1211395127
H  H70  1  0.99280000  0.59580000  0.79130000  1.0 0.1211395127
H  H71  1  0.59580000  0.79130000  0.99280000  1.0 0.1211395127
H  H72  1  0.79130000  0.99280000  0.59580000  1.0 0.1211395127
H  H73  1  0.20260000  0.90020000  0.98220000  1.0 0.1315101972
H  H74  1  0.90020000  0.98220000  0.20260000  1.0 0.1315101972
H  H75  1  0.98220000  0.20260000  0.90020000  1.0 0.1315101972
H  H76  1  0.79740000  0.09980000  0.01780000  1.0 0.1315101972
H  H77  1  0.09980000  0.01780000  0.79740000  1.0 0.1315101972
H  H78  1  0.01780000  0.79740000  0.09980000  1.0 0.1315101972
H  H79  1  0.09690000  0.54490000  0.68540000  1.0 0.1117938574
H  H80  1  0.54490000  0.68540000  0.09690000  1.0 0.1117938574
H  H81  1  0.68540000  0.09690000  0.54490000  1.0 0.1117938574
H  H82  1  0.90310000  0.45510000  0.31460000  1.0 0.1117938574
H  H83  1  0.45510000  0.31460000  0.90310000  1.0 0.1117938574
H  H84  1  0.31460000  0.90310000  0.45510000  1.0 0.1117938574
H  H85  1  0.86490000  0.16400000  0.37190000  1.0 0.1211395127
H  H86  1  0.16400000  0.37190000  0.86490000  1.0 0.1211395127
H  H87  1  0.37190000  0.86490000  0.16400000  1.0 0.1211395127
H  H88  1  0.13510000  0.83600000  0.62810000  1.0 0.1211395127
H  H89  1  0.83600000  0.62810000  0.13510000  1.0 0.1211395127
H  H90  1  0.62810000  0.13510000  0.83600000  1.0 0.1211395127
H  H91  1  0.03420000  0.20840000  0.53200000  1.0 0.1315101972
H  H92  1  0.20840000  0.53200000  0.03420000  1.0 0.1315101972
H  H93  1  0.53200000  0.03420000  0.20840000  1.0 0.1315101972
H  H94  1  0.96580000  0.79160000  0.46800000  1.0 0.1315101972
H  H95  1  0.79160000  0.46800000  0.96580000  1.0 0.1315101972
H  H96  1  0.46800000  0.96580000  0.79160000  1.0 0.1315101972
H  H97  1  0.17230000  0.63740000  0.79500000  1.0 0.1315101972
H  H98  1  0.63740000  0.79500000  0.17230000  1.0 0.1315101972
H  H99  1  0.79500000  0.17230000  0.63740000  1.0 0.1315101972
H  H100  1  0.82770000  0.36260000  0.20500000  1.0 0.1315101972
H  H101  1  0.36260000  0.20500000  0.82770000  1.0 0.1315101972
H  H102  1  0.20500000  0.82770000  0.36260000  1.0 0.1315101972
H  H103  1  0.28460000  0.73200000  0.71950000  1.0 0.1352830558
H  H104  1  0.73200000  0.71950000  0.28460000  1.0 0.1352830558
H  H105  1  0.71950000  0.28460000  0.73200000  1.0 0.1352830558
H  H106  1  0.71540000  0.26800000  0.28050000  1.0 0.1352830558
H  H107  1  0.26800000  0.28050000  0.71540000  1.0 0.1352830558
H  H108  1  0.28050000  0.71540000  0.26800000  1.0 0.1352830558
H  H109  1  0.20770000  0.63230000  0.60120000  1.0 0.1117938574
H  H110  1  0.63230000  0.60120000  0.20770000  1.0 0.1117938574
H  H111  1  0.60120000  0.20770000  0.63230000  1.0 0.1117938574
H  H112  1  0.79230000  0.36770000  0.39880000  1.0 0.1117938574
H  H113  1  0.36770000  0.39880000  0.79230000  1.0 0.1117938574
H  H114  1  0.39880000  0.79230000  0.36770000  1.0 0.1117938574
C  C1  1  0.04060000  0.29630000  0.52140000  1.0 -0.1525338419
C  C2  1  0.29630000  0.52140000  0.04060000  1.0 -0.1525338419
C  C3  1  0.52140000  0.04060000  0.29630000  1.0 -0.1525338419
C  C4  1  0.95940000  0.70370000  0.47860000  1.0 -0.1525338419
C  C5  1  0.70370000  0.47860000  0.95940000  1.0 -0.1525338419
C  C6  1  0.47860000  0.95940000  0.70370000  1.0 -0.1525338419
C  C7  1  0.07560000  0.44790000  0.55410000  1.0 -0.2000419779
C  C8  1  0.44790000  0.55410000  0.07560000  1.0 -0.2000419779
C  C9  1  0.55410000  0.07560000  0.44790000  1.0 -0.2000419779
C  C10  1  0.92440000  0.55210000  0.44590000  1.0 -0.2000419779
C  C11  1  0.55210000  0.44590000  0.92440000  1.0 -0.2000419779
C  C12  1  0.44590000  0.92440000  0.55210000  1.0 -0.2000419779
C  C13  1  0.93490000  0.26940000  0.42420000  1.0 -0.1525338419
C  C14  1  0.26940000  0.42420000  0.93490000  1.0 -0.1525338419
C  C15  1  0.42420000  0.93490000  0.26940000  1.0 -0.1525338419
C  C16  1  0.06510000  0.73060000  0.57580000  1.0 -0.1525338419
C  C17  1  0.73060000  0.57580000  0.06510000  1.0 -0.1525338419
C  C18  1  0.57580000  0.06510000  0.73060000  1.0 -0.1525338419
C  C19  1  0.04230000  0.48210000  0.37170000  1.0 0.0735989825
C  C20  1  0.48210000  0.37170000  0.04230000  1.0 0.0735989825
C  C21  1  0.37170000  0.04230000  0.48210000  1.0 0.0735989825
C  C22  1  0.95770000  0.51790000  0.62830000  1.0 0.0735989825
C  C23  1  0.51790000  0.62830000  0.95770000  1.0 0.0735989825
C  C24  1  0.62830000  0.95770000  0.51790000  1.0 0.0735989825
C  C25  1  0.99980000  0.31740000  0.47720000  1.0 0.0626426411
C  C26  1  0.31740000  0.47720000  0.99980000  1.0 0.0626426411
C  C27  1  0.47720000  0.99980000  0.31740000  1.0 0.0626426411
C  C28  1  0.00020000  0.68260000  0.52280000  1.0 0.0626426411
C  C29  1  0.68260000  0.52280000  0.00020000  1.0 0.0626426411
C  C30  1  0.52280000  0.00020000  0.68260000  1.0 0.0626426411
C  C31  1  0.01900000  0.40330000  0.42970000  1.0 -0.2000419779
C  C32  1  0.40330000  0.42970000  0.01900000  1.0 -0.2000419779
C  C33  1  0.42970000  0.01900000  0.40330000  1.0 -0.2000419779
C  C34  1  0.98100000  0.59670000  0.57030000  1.0 -0.2000419779
C  C35  1  0.59670000  0.57030000  0.98100000  1.0 -0.2000419779
C  C36  1  0.57030000  0.98100000  0.59670000  1.0 -0.2000419779
C  C37  1  0.10510000  0.51620000  0.56310000  1.0 0.0829789692
C  C38  1  0.51620000  0.56310000  0.10510000  1.0 0.0829789692
C  C39  1  0.56310000  0.10510000  0.51620000  1.0 0.0829789692
C  C40  1  0.89490000  0.48380000  0.43690000  1.0 0.0829789692
C  C41  1  0.48380000  0.43690000  0.89490000  1.0 0.0829789692
C  C42  1  0.43690000  0.89490000  0.48380000  1.0 0.0829789692
C  C43  1  0.09390000  0.52830000  0.50280000  1.0 -0.2123004244
C  C44  1  0.52830000  0.50280000  0.09390000  1.0 -0.2123004244
C  C45  1  0.50280000  0.09390000  0.52830000  1.0 -0.2123004244
C  C46  1  0.90610000  0.47170000  0.49720000  1.0 -0.2123004244
C  C47  1  0.47170000  0.49720000  0.90610000  1.0 -0.2123004244
C  C48  1  0.49720000  0.90610000  0.47170000  1.0 -0.2123004244
C  C49  1  0.03140000  0.39120000  0.48880000  1.0 0.0867644949
C  C50  1  0.39120000  0.48880000  0.03140000  1.0 0.0867644949
C  C51  1  0.48880000  0.03140000  0.39120000  1.0 0.0867644949
C  C52  1  0.96860000  0.60880000  0.51120000  1.0 0.0867644949
C  C53  1  0.60880000  0.51120000  0.96860000  1.0 0.0867644949
C  C54  1  0.51120000  0.96860000  0.60880000  1.0 0.0867644949
C  C55  1  0.03470000  0.55640000  0.31550000  1.0 -0.0898022124
C  C56  1  0.55640000  0.31550000  0.03470000  1.0 -0.0898022124
C  C57  1  0.31550000  0.03470000  0.55640000  1.0 -0.0898022124
C  C58  1  0.96530000  0.44360000  0.68450000  1.0 -0.0898022124
C  C59  1  0.44360000  0.68450000  0.96530000  1.0 -0.0898022124
C  C60  1  0.68450000  0.96530000  0.44360000  1.0 -0.0898022124
C  C61  1  0.22840000  0.08170000  0.03260000  1.0 -0.1525338419
C  C62  1  0.08170000  0.03260000  0.22840000  1.0 -0.1525338419
C  C63  1  0.03260000  0.22840000  0.08170000  1.0 -0.1525338419
C  C64  1  0.77160000  0.91830000  0.96740000  1.0 -0.1525338419
C  C65  1  0.91830000  0.96740000  0.77160000  1.0 -0.1525338419
C  C66  1  0.96740000  0.77160000  0.91830000  1.0 -0.1525338419
C  C67  1  0.16267000  0.96613000  0.01290000  1.0 -0.137417177
C  C68  1  0.96613000  0.01290000  0.16267000  1.0 -0.137417177
C  C69  1  0.01290000  0.16267000  0.96613000  1.0 -0.137417177
C  C70  1  0.83733000  0.03387000  0.98710000  1.0 -0.137417177
C  C71  1  0.03387000  0.98710000  0.83733000  1.0 -0.137417177
C  C72  1  0.98710000  0.83733000  0.03387000  1.0 -0.137417177
C  C73  1  0.04740000  0.54680000  0.37390000  1.0 -0.1610244277
C  C74  1  0.54680000  0.37390000  0.04740000  1.0 -0.1610244277
C  C75  1  0.37390000  0.04740000  0.54680000  1.0 -0.1610244277
C  C76  1  0.95260000  0.45320000  0.62610000  1.0 -0.1610244277
C  C77  1  0.45320000  0.62610000  0.95260000  1.0 -0.1610244277
C  C78  1  0.62610000  0.95260000  0.45320000  1.0 -0.1610244277
C  C79  1  0.05090000  0.47070000  0.43540000  1.0 0.0867644949
C  C80  1  0.47070000  0.43540000  0.05090000  1.0 0.0867644949
C  C81  1  0.43540000  0.05090000  0.47070000  1.0 0.0867644949
C  C82  1  0.94910000  0.52930000  0.56460000  1.0 0.0867644949
C  C83  1  0.52930000  0.56460000  0.94910000  1.0 0.0867644949
C  C84  1  0.56460000  0.94910000  0.52930000  1.0 0.0867644949
C  C85  1  0.27730000  0.06260000  0.01690000  1.0 -0.0898022124
C  C86  1  0.06260000  0.01690000  0.27730000  1.0 -0.0898022124
C  C87  1  0.01690000  0.27730000  0.06260000  1.0 -0.0898022124
C  C88  1  0.72270000  0.93740000  0.98310000  1.0 -0.0898022124
C  C89  1  0.93740000  0.98310000  0.72270000  1.0 -0.0898022124
C  C90  1  0.98310000  0.72270000  0.93740000  1.0 -0.0898022124
C  C91  1  0.32010000  0.97330000  0.98210000  1.0 0.4107357614
C  C92  1  0.97330000  0.98210000  0.32010000  1.0 0.4107357614
C  C93  1  0.98210000  0.32010000  0.97330000  1.0 0.4107357614
C  C94  1  0.67990000  0.02670000  0.01790000  1.0 0.4107357614
C  C95  1  0.02670000  0.01790000  0.67990000  1.0 0.4107357614
C  C96  1  0.01790000  0.67990000  0.02670000  1.0 0.3996148162
C  C97  1  0.02920000  0.43120000  0.31000000  1.0 -0.1525338419
C  C98  1  0.43120000  0.31000000  0.02920000  1.0 -0.1525338419
C  C99  1  0.31000000  0.02920000  0.43120000  1.0 -0.1525338419
C  C100  1  0.97080000  0.56880000  0.69000000  1.0 -0.1525338419
C  C101  1  0.56880000  0.69000000  0.97080000  1.0 -0.1525338419
C  C102  1  0.69000000  0.97080000  0.56880000  1.0 -0.1525338419
C  C103  1  0.10070000  0.03400000  0.09940000  1.0 -0.0898022124
C  C104  1  0.03400000  0.09940000  0.10070000  1.0 -0.0898022124
C  C105  1  0.09940000  0.10070000  0.03400000  1.0 -0.0898022124
C  C106  1  0.89930000  0.96600000  0.90060000  1.0 -0.0986708538
C  C107  1  0.96600000  0.90060000  0.89930000  1.0 -0.0986708538
C  C108  1  0.90060000  0.89930000  0.96600000  1.0 -0.0986708538
C  C109  1  0.01474000  0.51796000  0.19090000  1.0 0.5924443556
C  C110  1  0.51796000  0.19090000  0.01474000  1.0 0.5924443556
C  C111  1  0.19090000  0.01474000  0.51796000  1.0 0.5924443556
C  C112  1  0.98526000  0.48204000  0.80910000  1.0 0.5924443556
C  C113  1  0.48204000  0.80910000  0.98526000  1.0 0.5924443556
C  C114  1  0.80910000  0.98526000  0.48204000  1.0 0.5924443556
C  C115  1  0.12320000  0.05651000  0.05619000  1.0 0.0168989683
C  C116  1  0.05651000  0.05619000  0.12320000  1.0 0.0168989683
C  C117  1  0.05619000  0.12320000  0.05651000  1.0 0.0168989683
C  C118  1  0.87680000  0.94349000  0.94381000  1.0 0.0168989683
C  C119  1  0.94349000  0.94381000  0.87680000  1.0 0.0168989683
C  C120  1  0.94381000  0.87680000  0.94349000  1.0 0.0168989683
C  C121  1  0.17188000  0.03592000  0.03320000  1.0 0.0961188802
C  C122  1  0.03592000  0.03320000  0.17188000  1.0 0.0961188802
C  C123  1  0.03320000  0.17188000  0.03592000  1.0 0.0961188802
C  C124  1  0.82812000  0.96408000  0.96680000  1.0 0.0961188802
C  C125  1  0.96408000  0.96680000  0.82812000  1.0 0.0961188802
C  C126  1  0.96680000  0.82812000  0.96408000  1.0 0.0961188802
C  C127  1  0.01784000  0.44036000  0.25040000  1.0 -0.0898022124
C  C128  1  0.44036000  0.25040000  0.01784000  1.0 -0.0898022124
C  C129  1  0.25040000  0.01784000  0.44036000  1.0 -0.0898022124
C  C130  1  0.98216000  0.55964000  0.74960000  1.0 -0.0898022124
C  C131  1  0.55964000  0.74960000  0.98216000  1.0 -0.0898022124
C  C132  1  0.74960000  0.98216000  0.55964000  1.0 -0.0898022124
C  C133  1  0.02224000  0.50376000  0.25310000  1.0 -0.0335921024
C  C134  1  0.50376000  0.25310000  0.02224000  1.0 -0.0335921024
C  C135  1  0.25310000  0.02224000  0.50376000  1.0 -0.0335921024
C  C136  1  0.97776000  0.49624000  0.74690000  1.0 -0.0335921024
C  C137  1  0.49624000  0.74690000  0.97776000  1.0 -0.0335921024
C  C138  1  0.74690000  0.97776000  0.49624000  1.0 -0.0335921024
C  C139  1  0.20936000  0.94614000  0.99520000  1.0 -0.0986708538
C  C140  1  0.94614000  0.99520000  0.20936000  1.0 -0.0986708538
C  C141  1  0.99520000  0.20936000  0.94614000  1.0 -0.0986708538
C  C142  1  0.79064000  0.05386000  0.00480000  1.0 -0.0986708538
C  C143  1  0.05386000  0.00480000  0.79064000  1.0 -0.0986708538
C  C144  1  0.00480000  0.79064000  0.05386000  1.0 -0.0986708538
C  C145  1  0.26740000  0.99550000  0.99700000  1.0 -0.0136328288
C  C146  1  0.99550000  0.99700000  0.26740000  1.0 -0.0136328288
C  C147  1  0.99700000  0.26740000  0.99550000  1.0 -0.0136328288
C  C148  1  0.73260000  0.00450000  0.00300000  1.0 -0.0136328288
C  C149  1  0.00450000  0.00300000  0.73260000  1.0 -0.0136328288
C  C150  1  0.00300000  0.73260000  0.00450000  1.0 -0.0136328288
C  C151  1  0.13570000  0.58070000  0.69060000  1.0 -0.1610244277
C  C152  1  0.58070000  0.69060000  0.13570000  1.0 -0.1610244277
C  C153  1  0.69060000  0.13570000  0.58070000  1.0 -0.1610244277
C  C154  1  0.86430000  0.41930000  0.30940000  1.0 -0.1610244277
C  C155  1  0.41930000  0.30940000  0.86430000  1.0 -0.1610244277
C  C156  1  0.30940000  0.86430000  0.41930000  1.0 -0.1610244277
C  C157  1  0.90860000  0.19660000  0.40930000  1.0 -0.0986708538
C  C158  1  0.19660000  0.40930000  0.90860000  1.0 -0.0986708538
C  C159  1  0.40930000  0.90860000  0.19660000  1.0 -0.0986708538
C  C160  1  0.09140000  0.80340000  0.59070000  1.0 -0.0986708538
C  C161  1  0.80340000  0.59070000  0.09140000  1.0 -0.0986708538
C  C162  1  0.59070000  0.09140000  0.80340000  1.0 -0.0986708538
C  C163  1  0.00950000  0.22370000  0.50390000  1.0 -0.0898022124
C  C164  1  0.22370000  0.50390000  0.00950000  1.0 -0.0898022124
C  C165  1  0.50390000  0.00950000  0.22370000  1.0 -0.0898022124
C  C166  1  0.99050000  0.77630000  0.49610000  1.0 -0.0898022124
C  C167  1  0.77630000  0.49610000  0.99050000  1.0 -0.0898022124
C  C168  1  0.49610000  0.99050000  0.77630000  1.0 -0.0898022124
C  C169  1  0.17950000  0.63730000  0.75640000  1.0 -0.0898022124
C  C170  1  0.63730000  0.75640000  0.17950000  1.0 -0.0898022124
C  C171  1  0.75640000  0.17950000  0.63730000  1.0 -0.0898022124
C  C172  1  0.82050000  0.36270000  0.24360000  1.0 -0.0898022124
C  C173  1  0.36270000  0.24360000  0.82050000  1.0 -0.0898022124
C  C174  1  0.24360000  0.82050000  0.36270000  1.0 -0.0898022124
C  C175  1  0.14670000  0.57500000  0.63190000  1.0 0.0626426411
C  C176  1  0.57500000  0.63190000  0.14670000  1.0 0.0626426411
C  C177  1  0.63190000  0.14670000  0.57500000  1.0 0.0626426411
C  C178  1  0.85330000  0.42500000  0.36810000  1.0 0.0626426411
C  C179  1  0.42500000  0.36810000  0.85330000  1.0 0.0626426411
C  C180  1  0.36810000  0.85330000  0.42500000  1.0 0.0626426411
C  C181  1  0.24650000  0.69320000  0.71150000  1.0 -0.0986708538
C  C182  1  0.69320000  0.71150000  0.24650000  1.0 -0.0986708538
C  C183  1  0.71150000  0.24650000  0.69320000  1.0 -0.0986708538
C  C184  1  0.75350000  0.30680000  0.28850000  1.0 -0.0986708538
C  C185  1  0.30680000  0.28850000  0.75350000  1.0 -0.0986708538
C  C186  1  0.28850000  0.75350000  0.30680000  1.0 -0.0986708538
C  C187  1  0.27930000  0.75830000  0.83830000  1.0 0.4596781784
C  C188  1  0.75830000  0.83830000  0.27930000  1.0 0.4596781784
C  C189  1  0.83830000  0.27930000  0.75830000  1.0 0.4659172946
C  C190  1  0.72070000  0.24170000  0.16170000  1.0 0.4659172946
C  C191  1  0.24170000  0.16170000  0.72070000  1.0 0.4659172946
C  C192  1  0.16170000  0.72070000  0.24170000  1.0 0.4596781784
C  C193  1  0.20020000  0.63180000  0.63950000  1.0 -0.1610244277
C  C194  1  0.63180000  0.63950000  0.20020000  1.0 -0.1610244277
C  C195  1  0.63950000  0.20020000  0.63180000  1.0 -0.1610244277
C  C196  1  0.79980000  0.36820000  0.36050000  1.0 -0.1610244277
C  C197  1  0.36820000  0.36050000  0.79980000  1.0 -0.1610244277
C  C198  1  0.36050000  0.79980000  0.36820000  1.0 -0.1610244277
C  C199  1  0.94710000  0.17570000  0.44960000  1.0 0.026335354
C  C200  1  0.17570000  0.44960000  0.94710000  1.0 0.026335354
C  C201  1  0.44960000  0.94710000  0.17570000  1.0 0.026335354
C  C202  1  0.05290000  0.82430000  0.55040000  1.0 0.026335354
C  C203  1  0.82430000  0.55040000  0.05290000  1.0 0.026335354
C  C204  1  0.55040000  0.05290000  0.82430000  1.0 0.026335354
C  C205  1  0.23050000  0.68960000  0.76290000  1.0 0.0168989683
C  C206  1  0.68960000  0.76290000  0.23050000  1.0 0.0168989683
C  C207  1  0.76290000  0.23050000  0.68960000  1.0 0.0168989683
C  C208  1  0.76950000  0.31040000  0.23710000  1.0 0.0168989683
C  C209  1  0.31040000  0.23710000  0.76950000  1.0 0.0168989683
C  C210  1  0.23710000  0.76950000  0.31040000  1.0 0.0168989683
C  C211  1  0.92280000  0.09600000  0.42790000  1.0 0.2280255485
C  C212  1  0.09600000  0.42790000  0.92280000  1.0 0.2280255485
C  C213  1  0.42790000  0.92280000  0.09600000  1.0 0.2280255485
C  C214  1  0.07720000  0.90400000  0.57210000  1.0 0.2280255485
C  C215  1  0.90400000  0.57210000  0.07720000  1.0 0.2280255485
C  C216  1  0.57210000  0.07720000  0.90400000  1.0 0.2280255485
O  O1  1  0.38178000  0.02152000  0.00540000  1.0 -0.3878615793
O  O2  1  0.02152000  0.00540000  0.38178000  1.0 -0.3878615793
O  O3  1  0.00540000  0.38178000  0.02152000  1.0 -0.3878615793
O  O4  1  0.61822000  0.97848000  0.99460000  1.0 -0.3878615793
O  O5  1  0.97848000  0.99460000  0.61822000  1.0 -0.3878615793
O  O6  1  0.99460000  0.61822000  0.97848000  1.0 -0.3878615793
O  O7  1  0.27148000  0.75530000  0.88692000  1.0 -0.4100460456
O  O8  1  0.75530000  0.88692000  0.27148000  1.0 -0.4100460456
O  O9  1  0.88692000  0.27148000  0.75530000  1.0 -0.4100460456
O  O10  1  0.72852000  0.24470000  0.11308000  1.0 -0.4100460456
O  O11  1  0.24470000  0.11308000  0.72852000  1.0 -0.4100460456
O  O12  1  0.11308000  0.72852000  0.24470000  1.0 -0.4100460456
O  O13  1  0.03268000  0.57958000  0.20236000  1.0 -0.4433513231
O  O14  1  0.57958000  0.20236000  0.03268000  1.0 -0.4433513231
O  O15  1  0.20236000  0.03268000  0.57958000  1.0 -0.4433513231
O  O16  1  0.96732000  0.42042000  0.79764000  1.0 -0.4433513231
O  O17  1  0.42042000  0.79764000  0.96732000  1.0 -0.4433513231
O  O18  1  0.79764000  0.96732000  0.42042000  1.0 -0.4433513231
O  O19  1  0.30136000  0.90932000  0.95208000  1.0 -0.4100460456
O  O20  1  0.90932000  0.95208000  0.30136000  1.0 -0.4100460456
O  O21  1  0.95208000  0.30136000  0.90932000  1.0 -0.4100460456
O  O22  1  0.69864000  0.09068000  0.04792000  1.0 -0.4100460456
O  O23  1  0.09068000  0.04792000  0.69864000  1.0 -0.4100460456
O  O24  1  0.04792000  0.69864000  0.09068000  1.0 -0.4100460456
O  O25  1  0.99138000  0.46540000  0.13239000  1.0 -0.4496401545
O  O26  1  0.46540000  0.13239000  0.99138000  1.0 -0.4496401545
O  O27  1  0.13239000  0.99138000  0.46540000  1.0 -0.4496401545
O  O28  1  0.00862000  0.53460000  0.86761000  1.0 -0.4496401545
O  O29  1  0.53460000  0.86761000  0.00862000  1.0 -0.4496401545
O  O30  1  0.86761000  0.00862000  0.53460000  1.0 -0.4496401545
O  O31  1  0.95370000  0.08380000  0.47670000  1.0 -0.4291889615
O  O32  1  0.08380000  0.47670000  0.95370000  1.0 -0.4291889615
O  O33  1  0.47670000  0.95370000  0.08380000  1.0 -0.4291889615
O  O34  1  0.04630000  0.91620000  0.52330000  1.0 -0.4291889615
O  O35  1  0.91620000  0.52330000  0.04630000  1.0 -0.4291889615
O  O36  1  0.52330000  0.04630000  0.91620000  1.0 -0.4291889615
O  O37  1  0.32472000  0.80312000  0.83767000  1.0 -0.3828314987
O  O38  1  0.80312000  0.83767000  0.32472000  1.0 -0.3828314987
O  O39  1  0.83767000  0.32472000  0.80312000  1.0 -0.3828314987
O  O40  1  0.67528000  0.19688000  0.16233000  1.0 -0.3828314987
O  O41  1  0.19688000  0.16233000  0.67528000  1.0 -0.3828314987
O  O42  1  0.16233000  0.67528000  0.19688000  1.0 -0.3828314987
O  O43  1  0.44950000  0.93468000  0.94940000  1.0 -0.6933203734
O  O44  1  0.93468000  0.94940000  0.44950000  1.0 -0.6933203734
O  O45  1  0.94940000  0.44950000  0.93468000  1.0 -0.6933203734
O  O46  1  0.55050000  0.06532000  0.05060000  1.0 -0.6964698678
O  O47  1  0.06532000  0.05060000  0.55050000  1.0 -0.6933203734
O  O48  1  0.05060000  0.55050000  0.06532000  1.0 -0.6964698678
O  O49  1  0.87430000  0.05480000  0.37300000  1.0 -0.346247176
O  O50  1  0.05480000  0.37300000  0.87430000  1.0 -0.346247176
O  O51  1  0.37300000  0.87430000  0.05480000  1.0 -0.346247176
O  O52  1  0.12570000  0.94520000  0.62700000  1.0 -0.346247176
O  O53  1  0.94520000  0.62700000  0.12570000  1.0 -0.346247176
O  O54  1  0.62700000  0.12570000  0.94520000  1.0 -0.346247176
