# DDEC6 charges by PACMAN v1.1 (https://github.com/mtap-research/PACMAN-charge/)
data_WAXJAJ01_ion_pacman
_symmetry_space_group_name_H-M   'P 1'
_cell_length_a   7.87700000
_cell_length_b   15.69300000
_cell_length_c   13.49210000
_cell_angle_alpha   90.00000000
_cell_angle_beta   123.93000000
_cell_angle_gamma   90.00000000
_symmetry_Int_Tables_number   1
_chemical_formula_structural   SrCoH10C7N7O2
_chemical_formula_sum   'Sr4 Co4 H40 C28 N28 O8'
_cell_volume   1383.81489794
_cell_formula_units_Z   4
loop_
 _symmetry_equiv_pos_site_id
 _symmetry_equiv_pos_as_xyz
  1  'x, y, z'
loop_
 _atom_site_type_symbol
 _atom_site_label
 _atom_site_symmetry_multiplicity
 _atom_site_fract_x
 _atom_site_fract_y
 _atom_site_fract_z
 _atom_site_occupancy
 _atom_site_charge
Sr  Sr1  1  0.05317000  0.40452000  0.80413000  1.0 1.3713730087
Sr  Sr2  1  0.94683000  0.90452000  0.69587000  1.0 1.3713730087
Sr  Sr3  1  0.94683000  0.59548000  0.19587000  1.0 1.3713730087
Sr  Sr4  1  0.05317000  0.09548000  0.30413000  1.0 1.3713730087
Co  Co1  1  0.54853000  0.14579000  0.80004000  1.0 0.1388299202
Co  Co2  1  0.45147000  0.64579000  0.69996000  1.0 0.1388299202
Co  Co3  1  0.45147000  0.85421000  0.19996000  1.0 0.1388299202
Co  Co4  1  0.54853000  0.35421000  0.30004000  1.0 0.1388299202
H  H1  1  0.29060000  0.51700000  0.01240000  1.0 0.339640889
H  H2  1  0.70940000  0.01700000  0.48760000  1.0 0.339640889
H  H3  1  0.70940000  0.48300000  0.98760000  1.0 0.339640889
H  H4  1  0.29060000  0.98300000  0.51240000  1.0 0.339640889
H  H5  1  0.26850000  0.57230000  0.92980000  1.0 0.3563280066
H  H6  1  0.73150000  0.07230000  0.57020000  1.0 0.3563280066
H  H7  1  0.73150000  0.42770000  0.07020000  1.0 0.3563280066
H  H8  1  0.26850000  0.92770000  0.42980000  1.0 0.3563280066
H  H9  1  0.78610000  0.43820000  0.85210000  1.0 0.3911040194
H  H10  1  0.21390000  0.93820000  0.64790000  1.0 0.3911040194
H  H11  1  0.21390000  0.56180000  0.14790000  1.0 0.3911040194
H  H12  1  0.78610000  0.06180000  0.35210000  1.0 0.3911040194
H  H13  1  0.89270000  0.38830000  0.96230000  1.0 0.3911040194
H  H14  1  0.10730000  0.88830000  0.53770000  1.0 0.3950952997
H  H15  1  0.10730000  0.61170000  0.03770000  1.0 0.3911040194
H  H16  1  0.89270000  0.11170000  0.46230000  1.0 0.3911040194
H  H17  1  0.09520000  0.38420000  0.44980000  1.0 0.2805363422
H  H18  1  0.15260000  0.38680000  0.57250000  1.0 0.2860693147
H  H19  1  0.14570000  0.30580000  0.51810000  1.0 0.2805363422
H  H20  1  0.41870000  0.33380000  0.51920000  1.0 0.128253292
H  H21  1  0.47360000  0.35730000  0.64690000  1.0 0.1148498316
H  H22  1  0.41200000  0.42910000  0.55180000  1.0 0.1215735216
H  H23  1  0.90480000  0.88420000  0.05020000  1.0 0.2805363422
H  H24  1  0.84740000  0.88680000  0.92750000  1.0 0.2860693147
H  H25  1  0.85430000  0.80580000  0.98190000  1.0 0.2805363422
H  H26  1  0.58130000  0.83380000  0.98080000  1.0 0.128253292
H  H27  1  0.52640000  0.85730000  0.85310000  1.0 0.1215735216
H  H28  1  0.58800000  0.92910000  0.94820000  1.0 0.1215735216
H  H29  1  0.90480000  0.61580000  0.55020000  1.0 0.2805363422
H  H30  1  0.84740000  0.61320000  0.42750000  1.0 0.2860693147
H  H31  1  0.85430000  0.69420000  0.48190000  1.0 0.2805363422
H  H32  1  0.58130000  0.66620000  0.48080000  1.0 0.128253292
H  H33  1  0.52640000  0.64270000  0.35310000  1.0 0.1148498316
H  H34  1  0.58800000  0.57090000  0.44820000  1.0 0.1215735216
H  H35  1  0.09520000  0.11580000  0.94980000  1.0 0.2805363422
H  H36  1  0.15260000  0.11320000  0.07250000  1.0 0.2860693147
H  H37  1  0.14570000  0.19420000  0.01810000  1.0 0.2805363422
H  H38  1  0.41870000  0.16620000  0.01920000  1.0 0.128253292
H  H39  1  0.47360000  0.14270000  0.14690000  1.0 0.1148498316
H  H40  1  0.41200000  0.07090000  0.05180000  1.0 0.1215735216
C  C1  1  0.40240000  0.24175000  0.80070000  1.0 0.0797914543
C  C2  1  0.59760000  0.74175000  0.69930000  1.0 0.0797914543
C  C3  1  0.59760000  0.75825000  0.19930000  1.0 0.0797914543
C  C4  1  0.40240000  0.25825000  0.30070000  1.0 0.0797914543
C  C5  1  0.38850000  0.15132000  0.63060000  1.0 0.0797914543
C  C6  1  0.61150000  0.65132000  0.86940000  1.0 0.0797914543
C  C7  1  0.61150000  0.84868000  0.36940000  1.0 0.0797914543
C  C8  1  0.38850000  0.34868000  0.13060000  1.0 0.0797914543
C  C9  1  0.34650000  0.07570000  0.79450000  1.0 0.0623762027
C  C10  1  0.65350000  0.57570000  0.70550000  1.0 0.0623762027
C  C11  1  0.65350000  0.92430000  0.20550000  1.0 0.0623762027
C  C12  1  0.34650000  0.42430000  0.29450000  1.0 0.0623762027
C  C13  1  0.71160000  0.14054000  0.96960000  1.0 0.0717205608
C  C14  1  0.28840000  0.64054000  0.53040000  1.0 0.0717205608
C  C15  1  0.28840000  0.85946000  0.03040000  1.0 0.0717205608
C  C16  1  0.71160000  0.35946000  0.46960000  1.0 0.0717205608
C  C17  1  0.74260000  0.21920000  0.80220000  1.0 0.0623762027
C  C18  1  0.25740000  0.71920000  0.69780000  1.0 0.0623762027
C  C19  1  0.25740000  0.78080000  0.19780000  1.0 0.0623762027
C  C20  1  0.74260000  0.28080000  0.30220000  1.0 0.0623762027
C  C21  1  0.30390000  0.55035000  0.70090000  1.0 0.0623762027
C  C22  1  0.69610000  0.05035000  0.79910000  1.0 0.0623762027
C  C23  1  0.69610000  0.44965000  0.29910000  1.0 0.0623762027
C  C24  1  0.30390000  0.94965000  0.20090000  1.0 0.0623762027
C  C25  1  0.38780000  0.37120000  0.56350000  1.0 -0.2033894549
C  C26  1  0.61220000  0.87120000  0.93650000  1.0 -0.2033894549
C  C27  1  0.61220000  0.62880000  0.43650000  1.0 -0.2033894549
C  C28  1  0.38780000  0.12880000  0.06350000  1.0 -0.2033894549
N  N1  1  0.30410000  0.29750000  0.79580000  1.0 -0.4409308995
N  N2  1  0.69590000  0.79750000  0.70420000  1.0 -0.4409308995
N  N3  1  0.69590000  0.70250000  0.20420000  1.0 -0.4409308995
N  N4  1  0.30410000  0.20250000  0.29580000  1.0 -0.4409308995
N  N5  1  0.29070000  0.15672000  0.52860000  1.0 -0.4193243871
N  N6  1  0.70930000  0.65672000  0.97140000  1.0 -0.4193243871
N  N7  1  0.70930000  0.84328000  0.47140000  1.0 -0.4193243871
N  N8  1  0.29070000  0.34328000  0.02860000  1.0 -0.4193243871
N  N9  1  0.86020000  0.26242000  0.80280000  1.0 -0.4558595534
N  N10  1  0.13980000  0.76242000  0.69720000  1.0 -0.4558595534
N  N11  1  0.13980000  0.73758000  0.19720000  1.0 -0.4558595534
N  N12  1  0.86020000  0.23758000  0.30280000  1.0 -0.4558595534
N  N13  1  0.81550000  0.13645000  0.07150000  1.0 -0.4522520791
N  N14  1  0.18450000  0.63645000  0.42850000  1.0 -0.4522520791
N  N15  1  0.18450000  0.86355000  0.92850000  1.0 -0.4522520791
N  N16  1  0.81550000  0.36355000  0.57150000  1.0 -0.4522520791
N  N17  1  0.21710000  0.03646000  0.78830000  1.0 -0.4522520791
N  N18  1  0.78290000  0.53646000  0.71170000  1.0 -0.4522520791
N  N19  1  0.78290000  0.96354000  0.21170000  1.0 -0.4522520791
N  N20  1  0.21710000  0.46354000  0.28830000  1.0 -0.4522520791
N  N21  1  0.20580000  0.49461000  0.69710000  1.0 -0.4409308995
N  N22  1  0.79420000  0.99461000  0.80290000  1.0 -0.4409308995
N  N23  1  0.79420000  0.50539000  0.30290000  1.0 -0.4409308995
N  N24  1  0.20580000  0.00539000  0.19710000  1.0 -0.4409308995
N  N25  1  0.17480000  0.36100000  0.52200000  1.0 -0.3367491404
N  N26  1  0.82520000  0.86100000  0.97800000  1.0 -0.3367491404
N  N27  1  0.82520000  0.63900000  0.47800000  1.0 -0.3367491404
N  N28  1  0.17480000  0.13900000  0.02200000  1.0 -0.3367491404
O  O1  1  0.30150000  0.52112000  0.95340000  1.0 -0.6967382769
O  O2  1  0.69850000  0.02112000  0.54660000  1.0 -0.6967382769
O  O3  1  0.69850000  0.47888000  0.04660000  1.0 -0.6967382769
O  O4  1  0.30150000  0.97888000  0.45340000  1.0 -0.6967382769
O  O5  1  0.88760000  0.43222000  0.92390000  1.0 -0.7228825579
O  O6  1  0.11240000  0.93222000  0.57610000  1.0 -0.7228825579
O  O7  1  0.11240000  0.56778000  0.07610000  1.0 -0.7228825579
O  O8  1  0.88760000  0.06778000  0.42390000  1.0 -0.7228825579
