# DDEC6 charges by PACMAN v1.1 (https://github.com/mtap-research/PACMAN-charge/)
data_WAXNOB_ASR_pacman
_symmetry_space_group_name_H-M   'P 1'
_cell_length_a   7.33600000
_cell_length_b   16.77000000
_cell_length_c   10.74300000
_cell_angle_alpha   90.00000000
_cell_angle_beta   95.40200000
_cell_angle_gamma   90.00000000
_symmetry_Int_Tables_number   1
_chemical_formula_structural   ZnH5C11(NO2)2
_chemical_formula_sum   'Zn4 H20 C44 N8 O16'
_cell_volume   1315.78467477
_cell_formula_units_Z   4
loop_
 _symmetry_equiv_pos_site_id
 _symmetry_equiv_pos_as_xyz
  1  'x, y, z'
loop_
 _atom_site_type_symbol
 _atom_site_label
 _atom_site_symmetry_multiplicity
 _atom_site_fract_x
 _atom_site_fract_y
 _atom_site_fract_z
 _atom_site_occupancy
 _atom_site_charge
Zn  Zn1  1  0.76871000  0.41996000  0.64237000  1.0 0.8558211026
Zn  Zn2  1  0.73129000  0.91996000  0.35763000  1.0 0.8558211026
Zn  Zn3  1  0.23129000  0.58004000  0.35763000  1.0 0.8558211026
Zn  Zn4  1  0.26871000  0.08004000  0.64237000  1.0 0.8558211026
H  H1  1  0.74850000  0.62540000  0.93640000  1.0 0.1310653112
H  H2  1  0.77100000  0.71060000  0.58880000  1.0 0.1310653112
H  H3  1  0.69350000  0.65180000  0.13790000  1.0 0.140319506
H  H4  1  0.69220000  0.72710000  0.33470000  1.0 0.140319506
H  H5  1  0.75350000  0.88260000  0.06890000  1.0 0.1310653112
H  H6  1  0.75150000  0.12540000  0.06360000  1.0 0.1310653112
H  H7  1  0.72900000  0.21060000  0.41120000  1.0 0.1310653112
H  H8  1  0.80650000  0.15180000  0.86210000  1.0 0.140319506
H  H9  1  0.80780000  0.22710000  0.66530000  1.0 0.140319506
H  H10  1  0.74650000  0.38260000  0.93110000  1.0 0.1310653112
H  H11  1  0.25150000  0.37460000  0.06360000  1.0 0.1310653112
H  H12  1  0.22900000  0.28940000  0.41120000  1.0 0.1310653112
H  H13  1  0.30650000  0.34820000  0.86210000  1.0 0.140319506
H  H14  1  0.30780000  0.27290000  0.66530000  1.0 0.140319506
H  H15  1  0.24650000  0.11740000  0.93110000  1.0 0.1310653112
H  H16  1  0.24850000  0.87460000  0.93640000  1.0 0.1310653112
H  H17  1  0.27100000  0.78940000  0.58880000  1.0 0.1310653112
H  H18  1  0.19350000  0.84820000  0.13790000  1.0 0.140319506
H  H19  1  0.19220000  0.77290000  0.33470000  1.0 0.140319506
H  H20  1  0.25350000  0.61740000  0.06890000  1.0 0.1310653112
C  C1  1  0.77070000  0.57270000  0.70380000  1.0 0.5558259484
C  C2  1  0.76460000  0.65630000  0.75430000  1.0 0.0177748061
C  C3  1  0.75080000  0.66840000  0.88200000  1.0 -0.1783359054
C  C4  1  0.74060000  0.74660000  0.92620000  1.0 0.140319506
C  C5  1  0.75040000  0.81050000  0.84220000  1.0 -0.1185465831
C  C6  1  0.76310000  0.79720000  0.71680000  1.0 -0.0112942469
C  C7  1  0.76680000  0.71990000  0.67380000  1.0 -0.0857720378
C  C8  1  0.76570000  0.86750000  0.62790000  1.0 0.574391782
C  C9  1  0.70390000  0.70680000  0.14720000  1.0 -0.1007522199
C  C10  1  0.70220000  0.74920000  0.25620000  1.0 -0.0189398844
C  C11  1  0.73550000  0.83500000  0.11030000  1.0 0.0805954781
C  C12  1  0.72930000  0.07270000  0.29620000  1.0 0.5558259484
C  C13  1  0.73540000  0.15630000  0.24570000  1.0 0.0177748061
C  C14  1  0.74920000  0.16840000  0.11800000  1.0 -0.1783359054
C  C15  1  0.75940000  0.24660000  0.07380000  1.0 0.140319506
C  C16  1  0.74960000  0.31050000  0.15780000  1.0 -0.1185465831
C  C17  1  0.73690000  0.29720000  0.28320000  1.0 -0.0112942469
C  C18  1  0.73320000  0.21990000  0.32620000  1.0 -0.0857720378
C  C19  1  0.73430000  0.36750000  0.37210000  1.0 0.574391782
C  C20  1  0.79610000  0.20680000  0.85280000  1.0 -0.1007522199
C  C21  1  0.79780000  0.24920000  0.74380000  1.0 -0.0189398844
C  C22  1  0.76450000  0.33500000  0.88970000  1.0 0.0805954781
C  C23  1  0.22930000  0.42730000  0.29620000  1.0 0.5558259484
C  C24  1  0.23540000  0.34370000  0.24570000  1.0 0.0177748061
C  C25  1  0.24920000  0.33160000  0.11800000  1.0 -0.1783359054
C  C26  1  0.25940000  0.25340000  0.07380000  1.0 0.140319506
C  C27  1  0.24960000  0.18950000  0.15780000  1.0 -0.1185465831
C  C28  1  0.23690000  0.20280000  0.28320000  1.0 -0.0112942469
C  C29  1  0.23320000  0.28010000  0.32620000  1.0 -0.0857720378
C  C30  1  0.23430000  0.13250000  0.37210000  1.0 0.574391782
C  C31  1  0.29610000  0.29320000  0.85280000  1.0 -0.1007522199
C  C32  1  0.29780000  0.25080000  0.74380000  1.0 -0.0189398844
C  C33  1  0.26450000  0.16500000  0.88970000  1.0 0.0805954781
C  C34  1  0.27070000  0.92730000  0.70380000  1.0 0.5558259484
C  C35  1  0.26460000  0.84370000  0.75430000  1.0 0.0177748061
C  C36  1  0.25080000  0.83160000  0.88200000  1.0 -0.1783359054
C  C37  1  0.24060000  0.75340000  0.92620000  1.0 0.140319506
C  C38  1  0.25040000  0.68950000  0.84220000  1.0 -0.1185465831
C  C39  1  0.26310000  0.70280000  0.71680000  1.0 -0.0112942469
C  C40  1  0.26680000  0.78010000  0.67380000  1.0 -0.0857720378
C  C41  1  0.26570000  0.63250000  0.62790000  1.0 0.574391782
C  C42  1  0.20390000  0.79320000  0.14720000  1.0 -0.1007522199
C  C43  1  0.20220000  0.75080000  0.25620000  1.0 -0.0189398844
C  C44  1  0.23550000  0.66500000  0.11030000  1.0 0.0805954781
N  N1  1  0.72410000  0.76130000  0.05490000  1.0 0.0177748061
N  N2  1  0.71710000  0.82840000  0.23220000  1.0 -0.2784239727
N  N3  1  0.77590000  0.26130000  0.94510000  1.0 0.0177748061
N  N4  1  0.78290000  0.32840000  0.76780000  1.0 -0.2784239727
N  N5  1  0.27590000  0.23870000  0.94510000  1.0 0.0177748061
N  N6  1  0.28290000  0.17160000  0.76780000  1.0 -0.2784239727
N  N7  1  0.22410000  0.73870000  0.05490000  1.0 0.0177748061
N  N8  1  0.21710000  0.67160000  0.23220000  1.0 -0.2784239727
O  O1  1  0.78250000  0.51460000  0.77800000  1.0 -0.5562684837
O  O2  1  0.76230000  0.56230000  0.58700000  1.0 -0.5137364271
O  O3  1  0.75250000  0.85140000  0.51350000  1.0 -0.5502573851
O  O4  1  0.77760000  0.93630000  0.67460000  1.0 -0.504011229
O  O5  1  0.71750000  0.01460000  0.22200000  1.0 -0.5562684837
O  O6  1  0.73770000  0.06230000  0.41300000  1.0 -0.5137364271
O  O7  1  0.74750000  0.35140000  0.48650000  1.0 -0.5502573851
O  O8  1  0.72240000  0.43630000  0.32540000  1.0 -0.504011229
O  O9  1  0.21750000  0.48540000  0.22200000  1.0 -0.5562684837
O  O10  1  0.23770000  0.43770000  0.41300000  1.0 -0.5137364271
O  O11  1  0.24750000  0.14860000  0.48650000  1.0 -0.5502573851
O  O12  1  0.22240000  0.06370000  0.32540000  1.0 -0.504011229
O  O13  1  0.28250000  0.98540000  0.77800000  1.0 -0.5562684837
O  O14  1  0.26230000  0.93770000  0.58700000  1.0 -0.5137364271
O  O15  1  0.25250000  0.64860000  0.51350000  1.0 -0.5502573851
O  O16  1  0.27760000  0.56370000  0.67460000  1.0 -0.504011229
