# DDEC6 charges by PACMAN v1.1 (https://github.com/mtap-research/PACMAN-charge/)
data_WAXPEU_ASR_pacman
_symmetry_space_group_name_H-M   'P 1'
_cell_length_a   12.68250000
_cell_length_b   13.43780000
_cell_length_c   13.99910000
_cell_angle_alpha   119.12800000
_cell_angle_beta   113.18800000
_cell_angle_gamma   82.98000000
_symmetry_Int_Tables_number   1
_chemical_formula_structural   Cu3P8H42(C25O12)2
_chemical_formula_sum   'Cu3 P8 H42 C50 O24'
_cell_volume   1908.53995763
_cell_formula_units_Z   1
loop_
 _symmetry_equiv_pos_site_id
 _symmetry_equiv_pos_as_xyz
  1  'x, y, z'
loop_
 _atom_site_type_symbol
 _atom_site_label
 _atom_site_symmetry_multiplicity
 _atom_site_fract_x
 _atom_site_fract_y
 _atom_site_fract_z
 _atom_site_occupancy
 _atom_site_charge
Cu  Cu1  1  0.18032000  0.52775000  0.47307000  1.0 1.1199736021
Cu  Cu2  1  0.81968000  0.47225000  0.52693000  1.0 1.1199736021
Cu  Cu3  1  0.50000000  0.50000000  0.50000000  1.0 1.0788998029
P  P1  1  0.06322000  0.65099000  0.67210000  1.0 1.2908256672
P  P2  1  0.80624000  0.66099000  0.76261000  1.0 1.2410136483
P  P3  1  0.65943000  0.29883000  0.47930000  1.0 1.2481554172
P  P4  1  0.64985000  0.62900000  0.44248000  1.0 1.2663455032
P  P5  1  0.93678000  0.34901000  0.32790000  1.0 1.2908256672
P  P6  1  0.19376000  0.33901000  0.23739000  1.0 1.2410136483
P  P7  1  0.34057000  0.70117000  0.52070000  1.0 1.2481554172
P  P8  1  0.35015000  0.37100000  0.55752000  1.0 1.2663455032
H  H1  1  0.77560000  0.82300000  0.78200000  1.0 0.3578572295
H  H2  1  0.72630000  0.74610000  0.61400000  1.0 0.3711076599
H  H3  1  0.58240000  0.34400000  0.59450000  1.0 0.3711076599
H  H4  1  0.94570000  0.76170000  0.71490000  1.0 0.3711076599
H  H5  1  0.96770000  0.61110000  0.80060000  1.0 0.3771096192
H  H6  1  0.65090000  0.53910000  0.78560000  1.0 0.1350725464
H  H7  1  0.40990000  0.98820000  0.11910000  1.0 0.1110341173
H  H8  1  0.24970000  0.81320000  0.76610000  1.0 0.1171234251
H  H9  1  0.45880000  0.17600000  0.27430000  1.0 0.1110341173
H  H10  1  0.49770000  0.78030000  0.37990000  1.0 0.1279949766
H  H11  1  0.42820000  0.86980000  0.92190000  1.0 0.1110341173
H  H12  1  0.35490000  0.66440000  0.02810000  1.0 0.1171234251
H  H13  1  0.55290000  0.59440000  0.91140000  1.0 0.1171234251
H  H14  1  0.68330000  0.92220000  0.07160000  1.0 0.1171234251
H  H15  1  0.77960000  0.09340000  0.41720000  1.0 0.1279949766
H  H16  1  0.17470000  0.60810000  0.87170000  1.0 0.1171234251
H  H17  1  0.77670000  0.86760000  0.94180000  1.0 0.1171234251
H  H18  1  0.70660000  0.55800000  0.23830000  1.0 0.1279949766
H  H19  1  0.73040000  0.90740000  0.26270000  1.0 0.1171234251
H  H20  1  0.45320000  0.83930000  0.23920000  1.0 0.1171234251
H  H21  1  0.66770000  0.62250000  0.10100000  1.0 0.1171234251
H  H22  1  0.22440000  0.17700000  0.21800000  1.0 0.3578572295
H  H23  1  0.27370000  0.25390000  0.38600000  1.0 0.3711076599
H  H24  1  0.41760000  0.65600000  0.40550000  1.0 0.3711076599
H  H25  1  0.05430000  0.23830000  0.28510000  1.0 0.3711076599
H  H26  1  0.03230000  0.38890000  0.19940000  1.0 0.3771096192
H  H27  1  0.34910000  0.46090000  0.21440000  1.0 0.1350725464
H  H28  1  0.59010000  0.01180000  0.88090000  1.0 0.1110341173
H  H29  1  0.75030000  0.18680000  0.23390000  1.0 0.1171234251
H  H30  1  0.54120000  0.82400000  0.72570000  1.0 0.1110341173
H  H31  1  0.50230000  0.21970000  0.62010000  1.0 0.1279949766
H  H32  1  0.57180000  0.13020000  0.07810000  1.0 0.1110341173
H  H33  1  0.64510000  0.33560000  0.97190000  1.0 0.1171234251
H  H34  1  0.44710000  0.40560000  0.08860000  1.0 0.1171234251
H  H35  1  0.31670000  0.07780000  0.92840000  1.0 0.1171234251
H  H36  1  0.22040000  0.90660000  0.58280000  1.0 0.1279949766
H  H37  1  0.82530000  0.39190000  0.12830000  1.0 0.1171234251
H  H38  1  0.22330000  0.13240000  0.05820000  1.0 0.1171234251
H  H39  1  0.29340000  0.44200000  0.76170000  1.0 0.1279949766
H  H40  1  0.26960000  0.09260000  0.73730000  1.0 0.1171234251
H  H41  1  0.54680000  0.16070000  0.76080000  1.0 0.1171234251
H  H42  1  0.33230000  0.37750000  0.89900000  1.0 0.1171234251
C  C1  1  0.65746000  0.61704000  0.84365000  1.0 -0.0258534743
C  C2  1  0.48503000  0.00924000  0.17966000  1.0 -0.1580846039
C  C3  1  0.27122000  0.78190000  0.81840000  1.0 -0.0616316122
C  C4  1  0.55931000  0.74067000  0.15806000  1.0 0.0717074707
C  C5  1  0.61015000  0.76392000  0.00704000  1.0 0.0763404279
C  C6  1  0.51420000  0.12140000  0.27250000  1.0 -0.067950267
C  C7  1  0.56438000  0.92830000  0.17491000  1.0 0.0646061546
C  C8  1  0.53643000  0.80027000  0.08204000  1.0 -0.0117373603
C  C9  1  0.53276000  0.74820000  0.32370000  1.0 -0.067950267
C  C10  1  0.62332000  0.15407000  0.36218000  1.0 -0.1894385756
C  C11  1  0.19486000  0.70160000  0.80090000  1.0 -0.2069407456
C  C12  1  0.72498000  0.69825000  0.85269000  1.0 -0.219970157
C  C13  1  0.37730000  0.81560000  0.91130000  1.0 -0.1505909391
C  C14  1  0.33424000  0.69429000  0.97459000  1.0 -0.1580846039
C  C15  1  0.60957000  0.66499000  0.32546000  1.0 -0.1894385756
C  C16  1  0.59992000  0.64987000  0.91919000  1.0 -0.1371364572
C  C17  1  0.67648000  0.84421000  0.01371000  1.0 -0.1505909391
C  C18  1  0.70429000  0.07242000  0.35710000  1.0 -0.067950267
C  C19  1  0.22673000  0.66030000  0.88080000  1.0 -0.067950267
C  C20  1  0.73269000  0.81165000  0.93675000  1.0 -0.0975742914
C  C21  1  0.41124000  0.77146000  0.99040000  1.0 0.0763404279
C  C22  1  0.65700000  0.61740000  0.24040000  1.0 -0.0616316122
C  C23  1  0.67483000  0.96185000  0.26507000  1.0 -0.1580846039
C  C24  1  0.50732000  0.78391000  0.24050000  1.0 -0.1505909391
C  C25  1  0.63320000  0.65524000  0.15772000  1.0 -0.1505909391
C  C26  1  0.34254000  0.38296000  0.15635000  1.0 -0.0258534743
C  C27  1  0.51497000  0.99076000  0.82034000  1.0 -0.1580846039
C  C28  1  0.72878000  0.21810000  0.18160000  1.0 -0.0616316122
C  C29  1  0.44069000  0.25933000  0.84194000  1.0 0.0717074707
C  C30  1  0.38985000  0.23608000  0.99296000  1.0 0.0763404279
C  C31  1  0.48580000  0.87860000  0.72750000  1.0 -0.067950267
C  C32  1  0.43562000  0.07170000  0.82509000  1.0 0.0646061546
C  C33  1  0.46357000  0.19973000  0.91796000  1.0 -0.0117373603
C  C34  1  0.46724000  0.25180000  0.67630000  1.0 -0.067950267
C  C35  1  0.37668000  0.84593000  0.63782000  1.0 -0.1894385756
C  C36  1  0.80514000  0.29840000  0.19910000  1.0 -0.2069407456
C  C37  1  0.27502000  0.30175000  0.14731000  1.0 -0.219970157
C  C38  1  0.62270000  0.18440000  0.08870000  1.0 -0.1505909391
C  C39  1  0.66576000  0.30571000  0.02541000  1.0 -0.1580846039
C  C40  1  0.39043000  0.33501000  0.67454000  1.0 -0.1894385756
C  C41  1  0.40008000  0.35013000  0.08081000  1.0 -0.1371364572
C  C42  1  0.32352000  0.15579000  0.98629000  1.0 -0.1505909391
C  C43  1  0.29571000  0.92758000  0.64290000  1.0 -0.067950267
C  C44  1  0.77327000  0.33970000  0.11920000  1.0 -0.067950267
C  C45  1  0.26731000  0.18835000  0.06325000  1.0 -0.0975742914
C  C46  1  0.58876000  0.22854000  0.00960000  1.0 0.0763404279
C  C47  1  0.34300000  0.38260000  0.75960000  1.0 -0.0616316122
C  C48  1  0.32517000  0.03815000  0.73493000  1.0 -0.1580846039
C  C49  1  0.49268000  0.21609000  0.75950000  1.0 -0.1505909391
C  C50  1  0.36680000  0.34476000  0.84228000  1.0 -0.1505909391
O  O1  1  0.54182000  0.57136000  0.42330000  1.0 -0.7490903117
O  O2  1  0.74714000  0.55751000  0.64313000  1.0 -0.7872927465
O  O3  1  0.99907000  0.56247000  0.67078000  1.0 -0.7846342899
O  O4  1  0.75507000  0.56303000  0.44443000  1.0 -0.7490903117
O  O5  1  0.78653000  0.32808000  0.52046000  1.0 -0.6894775607
O  O6  1  0.09108000  0.61612000  0.56602000  1.0 -0.7024814762
O  O7  1  0.57796000  0.37026000  0.43122000  1.0 -0.7715552427
O  O8  1  0.82633000  0.76447000  0.75332000  1.0 -0.6069326975
O  O9  1  0.67776000  0.75024000  0.55465000  1.0 -0.5902015843
O  O10  1  0.63796000  0.30484000  0.58536000  1.0 -0.5902015843
O  O11  1  0.99254000  0.75897000  0.68491000  1.0 -0.6007763125
O  O12  1  0.92326000  0.63104000  0.83693000  1.0 -0.5778130867
O  O13  1  0.45818000  0.42864000  0.57670000  1.0 -0.7490903117
O  O14  1  0.25286000  0.44249000  0.35687000  1.0 -0.7872927465
O  O15  1  0.00093000  0.43753000  0.32922000  1.0 -0.7846342899
O  O16  1  0.24493000  0.43697000  0.55557000  1.0 -0.7490903117
O  O17  1  0.21347000  0.67192000  0.47954000  1.0 -0.6894775607
O  O18  1  0.90892000  0.38388000  0.43398000  1.0 -0.7024814762
O  O19  1  0.42204000  0.62974000  0.56878000  1.0 -0.7715552427
O  O20  1  0.17367000  0.23553000  0.24668000  1.0 -0.6069326975
O  O21  1  0.32224000  0.24976000  0.44535000  1.0 -0.5902015843
O  O22  1  0.36204000  0.69516000  0.41464000  1.0 -0.5902015843
O  O23  1  0.00746000  0.24103000  0.31509000  1.0 -0.6007763125
O  O24  1  0.07674000  0.36896000  0.16307000  1.0 -0.5778130867
