# DDEC6 charges by PACMAN v1.1 (https://github.com/mtap-research/PACMAN-charge/)
data_WAYKAK_FSR_pacman
_symmetry_space_group_name_H-M   'P 1'
_cell_length_a   14.54970000
_cell_length_b   14.54970000
_cell_length_c   14.24220000
_cell_angle_alpha   66.48740000
_cell_angle_beta   113.51300000
_cell_angle_gamma   145.36000000
_symmetry_Int_Tables_number   1
_chemical_formula_structural   NdH26C26N2O7
_chemical_formula_sum   'Nd2 H52 C52 N4 O14'
_cell_volume   1556.94810805
_cell_formula_units_Z   2
loop_
 _symmetry_equiv_pos_site_id
 _symmetry_equiv_pos_as_xyz
  1  'x, y, z'
loop_
 _atom_site_type_symbol
 _atom_site_label
 _atom_site_symmetry_multiplicity
 _atom_site_fract_x
 _atom_site_fract_y
 _atom_site_fract_z
 _atom_site_occupancy
 _atom_site_charge
Nd  Nd1  1  0.43167000  0.88451000  0.00502000  1.0 2.1093765385
Nd  Nd2  1  0.88451000  0.43167000  0.99498000  1.0 2.1093765385
H  H1  1  0.37670000  0.88970000  0.29280000  1.0 0.1192352935
H  H2  1  0.88970000  0.37670000  0.70720000  1.0 0.1192352935
H  H3  1  0.37810000  0.90490000  0.44910000  1.0 0.1108552967
H  H4  1  0.90490000  0.37810000  0.55090000  1.0 0.1108552967
H  H5  1  0.69650000  0.38310000  0.36550000  1.0 0.1108552967
H  H6  1  0.38310000  0.69650000  0.63450000  1.0 0.1108552967
H  H7  1  0.70450000  0.37170000  0.21210000  1.0 0.1280927188
H  H8  1  0.37170000  0.70450000  0.78790000  1.0 0.1280927188
H  H9  1  0.49370000  0.97230000  0.60960000  1.0 0.1108552967
H  H10  1  0.97230000  0.49370000  0.39040000  1.0 0.1108552967
H  H11  1  0.52630000  0.00470000  0.77020000  1.0 0.1192352935
H  H12  1  0.00470000  0.52630000  0.22980000  1.0 0.1192352935
H  H13  1  0.62670000  0.37710000  0.64200000  1.0 0.1192352935
H  H14  1  0.37710000  0.62670000  0.35800000  1.0 0.1192352935
H  H15  1  0.59110000  0.34410000  0.47980000  1.0 0.1108552967
H  H16  1  0.34410000  0.59110000  0.52020000  1.0 0.1108552967
H  H17  1  0.87180000  0.64740000  0.71290000  1.0 0.1280927188
H  H18  1  0.64740000  0.87180000  0.28710000  1.0 0.1280927188
H  H19  1  0.79920000  0.72340000  0.55720000  1.0 0.1108552967
H  H20  1  0.72340000  0.79920000  0.44280000  1.0 0.1108552967
H  H21  1  0.24730000  0.18990000  0.57530000  1.0 0.1108552967
H  H22  1  0.18990000  0.24730000  0.42470000  1.0 0.1108552967
H  H23  1  0.31930000  0.11390000  0.73090000  1.0 0.1280927188
H  H24  1  0.11390000  0.31930000  0.26910000  1.0 0.1280927188
H  H25  1  0.81210000  0.12650000  0.97080000  1.0 0.0801159813
H  H26  1  0.12650000  0.81210000  0.02920000  1.0 0.0801159813
H  H27  1  0.03020000  0.24000000  0.92400000  1.0 0.100125376
H  H28  1  0.24000000  0.03020000  0.07600000  1.0 0.100125376
H  H29  1  0.00940000  0.13260000  0.89080000  1.0 0.1108552967
H  H30  1  0.13260000  0.00940000  0.10920000  1.0 0.1108552967
H  H31  1  0.97400000  0.21380000  0.80790000  1.0 0.1192352935
H  H32  1  0.21380000  0.97400000  0.19210000  1.0 0.1192352935
H  H33  1  0.79950000  0.95910000  0.79150000  1.0 0.1406253434
H  H34  1  0.95910000  0.79950000  0.20850000  1.0 0.1406253434
H  H35  1  0.64410000  0.80790000  0.84810000  1.0 0.1406253434
H  H36  1  0.80790000  0.64410000  0.15190000  1.0 0.1406253434
H  H37  1  0.65900000  0.92660000  0.76100000  1.0 0.1280927188
H  H38  1  0.92660000  0.65900000  0.23900000  1.0 0.1280927188
H  H39  1  0.77820000  0.11380000  0.89150000  1.0 0.0801159813
H  H40  1  0.11380000  0.77820000  0.10850000  1.0 0.0801159813
H  H41  1  0.08310000  0.18010000  0.07320000  1.0 0.1192352935
H  H42  1  0.18010000  0.08310000  0.92680000  1.0 0.1192352935
H  H43  1  0.06520000  0.23640000  0.95540000  1.0 0.100125376
H  H44  1  0.23640000  0.06520000  0.04460000  1.0 0.100125376
H  H45  1  0.06630000  0.28290000  0.03840000  1.0 0.1406253434
H  H46  1  0.28290000  0.06630000  0.96160000  1.0 0.1406253434
H  H47  1  0.91020000  0.95700000  0.13050000  1.0 0.1280927188
H  H48  1  0.95700000  0.91020000  0.86950000  1.0 0.1280927188
H  H49  1  0.75380000  0.88200000  0.14150000  1.0 0.1406253434
H  H50  1  0.88200000  0.75380000  0.85850000  1.0 0.1406253434
H  H51  1  0.74570000  0.82770000  0.06000000  1.0 0.1406253434
H  H52  1  0.82770000  0.74570000  0.94000000  1.0 0.1406253434
C  C1  1  0.55034000  0.12246000  0.13850000  1.0 0.6223442442
C  C2  1  0.12246000  0.55034000  0.86150000  1.0 0.6223442442
C  C3  1  0.54382000  0.13018000  0.23740000  1.0 -0.0337170419
C  C4  1  0.13018000  0.54382000  0.76260000  1.0 -0.0337170419
C  C5  1  0.44360000  0.98960000  0.30820000  1.0 -0.1000285162
C  C6  1  0.98960000  0.44360000  0.69180000  1.0 -0.1000285162
C  C7  1  0.44350000  0.99890000  0.40180000  1.0 -0.1513370314
C  C8  1  0.99890000  0.44350000  0.59820000  1.0 -0.1513370314
C  C9  1  0.54013000  0.14687000  0.42580000  1.0 0.0720622216
C  C10  1  0.14687000  0.54013000  0.57420000  1.0 0.0720622216
C  C11  1  0.63450000  0.28430000  0.35220000  1.0 -0.1616136619
C  C12  1  0.28430000  0.63450000  0.64780000  1.0 -0.1616136619
C  C13  1  0.63852000  0.27768000  0.25930000  1.0 -0.1064535567
C  C14  1  0.27768000  0.63852000  0.74070000  1.0 -0.1064535567
C  C15  1  0.54660000  0.15980000  0.52740000  1.0 0.0720622216
C  C16  1  0.15980000  0.54660000  0.47260000  1.0 0.0720622216
C  C17  1  0.52300000  0.05560000  0.61590000  1.0 -0.1513370314
C  C18  1  0.05560000  0.52300000  0.38410000  1.0 -0.1513370314
C  C19  1  0.54270000  0.07510000  0.71240000  1.0 -0.1064535567
C  C20  1  0.07510000  0.54270000  0.28760000  1.0 -0.1064535567
C  C21  1  0.58658000  0.19842000  0.72360000  1.0 -0.0216892381
C  C22  1  0.19842000  0.58658000  0.27640000  1.0 -0.0216892381
C  C23  1  0.60209000  0.29711000  0.63550000  1.0 -0.1000285162
C  C24  1  0.29711000  0.60209000  0.36450000  1.0 -0.1000285162
C  C25  1  0.58160000  0.27800000  0.53790000  1.0 -0.1616136619
C  C26  1  0.27800000  0.58160000  0.46210000  1.0 -0.1616136619
C  C27  1  0.63478000  0.23902000  0.82820000  1.0 0.5824250466
C  C28  1  0.23902000  0.63478000  0.17180000  1.0 0.5824250466
C  C29  1  0.14695000  0.82165000  0.83880000  1.0 0.6223442442
C  C30  1  0.82165000  0.14695000  0.16120000  1.0 0.6223442442
C  C31  1  0.10260000  0.87360000  0.73850000  1.0 -0.0337170419
C  C32  1  0.87360000  0.10260000  0.26150000  1.0 -0.0337170419
C  C33  1  0.94750000  0.75710000  0.68600000  1.0 -0.1000285162
C  C34  1  0.75710000  0.94750000  0.31400000  1.0 -0.1000285162
C  C35  1  0.90390000  0.80350000  0.59230000  1.0 -0.1513370314
C  C36  1  0.80350000  0.90390000  0.40770000  1.0 -0.1513370314
C  C37  1  0.01290000  0.96630000  0.55050000  1.0 0.0720622216
C  C38  1  0.96630000  0.01290000  0.44950000  1.0 0.0720622216
C  C39  1  0.16970000  0.08030000  0.60300000  1.0 -0.1513370314
C  C40  1  0.08030000  0.16970000  0.39700000  1.0 -0.1513370314
C  C41  1  0.21370000  0.03450000  0.69660000  1.0 -0.0928100162
C  C42  1  0.03450000  0.21370000  0.30340000  1.0 -0.0928100162
C  C43  1  0.74300000  0.03160000  0.94600000  1.0 0.2108153067
C  C44  1  0.03160000  0.74300000  0.05400000  1.0 0.2108153067
C  C45  1  0.96720000  0.16380000  0.87820000  1.0 -0.3040510081
C  C46  1  0.16380000  0.96720000  0.12180000  1.0 -0.3040510081
C  C47  1  0.71830000  0.91970000  0.81700000  1.0 -0.3568205747
C  C48  1  0.91970000  0.71830000  0.18300000  1.0 -0.3568205747
C  C49  1  0.03260000  0.20020000  0.02100000  1.0 -0.2890839987
C  C50  1  0.20020000  0.03260000  0.97900000  1.0 -0.2890839987
C  C51  1  0.81260000  0.91740000  0.09380000  1.0 -0.3549179547
C  C52  1  0.91740000  0.81260000  0.90620000  1.0 -0.3568205747
N  N1  1  0.79940000  0.02120000  0.89640000  1.0 0.0138747119
N  N2  1  0.02120000  0.79940000  0.10360000  1.0 0.0138747119
N  N3  1  0.85760000  0.05180000  0.01480000  1.0 0.0630088634
N  N4  1  0.05180000  0.85760000  0.98520000  1.0 0.0630088634
O  O1  1  0.43565000  0.98615000  0.10810000  1.0 -0.6554401033
O  O2  1  0.98615000  0.43565000  0.89190000  1.0 -0.6554401033
O  O3  1  0.67235000  0.25445000  0.09320000  1.0 -0.6848801487
O  O4  1  0.25445000  0.67235000  0.90680000  1.0 -0.6848801487
O  O5  1  0.63724000  0.15816000  0.90910000  1.0 -0.7589684241
O  O6  1  0.15816000  0.63724000  0.09090000  1.0 -0.7589684241
O  O7  1  0.68615000  0.35905000  0.83530000  1.0 -0.5852863901
O  O8  1  0.35905000  0.68615000  0.16470000  1.0 -0.5852863901
O  O9  1  0.29518000  0.92582000  0.87790000  1.0 -0.6538711303
O  O10  1  0.92582000  0.29518000  0.12210000  1.0 -0.6538711303
O  O11  1  0.03313000  0.67527000  0.87760000  1.0 -0.6743905061
O  O12  1  0.67527000  0.03313000  0.12240000  1.0 -0.6743905061
O  O13  1  0.59281000  0.90479000  0.95540000  1.0 -0.5744491928
O  O14  1  0.90479000  0.59281000  0.04460000  1.0 -0.5744491928
