# DDEC6 charges by PACMAN v1.1 (https://github.com/mtap-research/PACMAN-charge/)
data_WAYMEQ_ASR_pacman
_symmetry_space_group_name_H-M   'P 1'
_cell_length_a   11.03370000
_cell_length_b   11.03370000
_cell_length_c   11.03370000
_cell_angle_alpha   145.12700000
_cell_angle_beta   109.63900000
_cell_angle_gamma   80.99560000
_symmetry_Int_Tables_number   1
_chemical_formula_structural   AlC8O5
_chemical_formula_sum   'Al2 C16 O10'
_cell_volume   705.39807110
_cell_formula_units_Z   2
loop_
 _symmetry_equiv_pos_site_id
 _symmetry_equiv_pos_as_xyz
  1  'x, y, z'
loop_
 _atom_site_type_symbol
 _atom_site_label
 _atom_site_symmetry_multiplicity
 _atom_site_fract_x
 _atom_site_fract_y
 _atom_site_fract_z
 _atom_site_occupancy
 _atom_site_charge
Al  Al1  1  0.25000000  0.25000000  0.50000000  1.0 1.6252482219
Al  Al2  1  0.25000000  0.75000000  0.00000000  1.0 1.6252482219
C  C1  1  0.69120000  0.90270000  0.18450000  1.0 -0.0056068503
C  C2  1  0.28180000  0.09730000  0.78850000  1.0 0.0009158192
C  C3  1  0.28180000  0.49330000  0.18450000  1.0 -0.0007436012
C  C4  1  0.69120000  0.50670000  0.78850000  1.0 0.0009158192
C  C5  1  0.82950000  0.98010000  0.24580000  1.0 0.0649944304
C  C6  1  0.26570000  0.01990000  0.84940000  1.0 0.0668983717
C  C7  1  0.26570000  0.41630000  0.24580000  1.0 0.0668983717
C  C8  1  0.82950000  0.58370000  0.84940000  1.0 0.0668983717
C  C9  1  0.87160000  0.80540000  0.06620000  1.0 -0.1474214436
C  C10  1  0.26080000  0.19460000  0.06620000  1.0 -0.1474214436
C  C11  1  0.64940000  0.68140000  0.96800000  1.0 -0.130674632
C  C12  1  0.28660000  0.31860000  0.96800000  1.0 -0.130674632
C  C13  1  0.01010000  0.87890000  0.13120000  1.0 0.6580278261
C  C14  1  0.25230000  0.12110000  0.13120000  1.0 0.6580278261
C  C15  1  0.50580000  0.61400000  0.89180000  1.0 0.6280343219
C  C16  1  0.27780000  0.38600000  0.89180000  1.0 0.6280343219
O  O1  1  0.30790000  0.00000000  0.30790000  1.0 -0.9484305696
O  O2  1  0.19270000  0.50000000  0.69270000  1.0 -0.925583692
O  O3  1  0.42400000  0.42480000  0.69640000  1.0 -0.4143548226
O  O4  1  0.27160000  0.57520000  0.99920000  1.0 -0.415920289
O  O5  1  0.27160000  0.27240000  0.69640000  1.0 -0.4143548226
O  O6  1  0.42400000  0.72760000  0.99920000  1.0 -0.4143548226
O  O7  1  0.07700000  0.74950000  0.00290000  1.0 -0.4986500756
O  O8  1  0.25340000  0.25050000  0.32750000  1.0 -0.4986500756
O  O9  1  0.25340000  0.92590000  0.00290000  1.0 -0.4986500756
O  O10  1  0.07700000  0.07410000  0.32750000  1.0 -0.4986500756
