# DDEC6 charges by PACMAN v1.1 (https://github.com/mtap-research/PACMAN-charge/)
data_WAZLUI_FSR_pacman
_symmetry_space_group_name_H-M   'P 1'
_cell_length_a   10.92420000
_cell_length_b   8.87990000
_cell_length_c   14.71190000
_cell_angle_alpha   90.00000000
_cell_angle_beta   129.64600000
_cell_angle_gamma   90.00000000
_symmetry_Int_Tables_number   1
_chemical_formula_structural   CuB2H8(C3N4)2
_chemical_formula_sum   'Cu2 B4 H16 C12 N16'
_cell_volume   1098.89932131
_cell_formula_units_Z   2
loop_
 _symmetry_equiv_pos_site_id
 _symmetry_equiv_pos_as_xyz
  1  'x, y, z'
loop_
 _atom_site_type_symbol
 _atom_site_label
 _atom_site_symmetry_multiplicity
 _atom_site_fract_x
 _atom_site_fract_y
 _atom_site_fract_z
 _atom_site_occupancy
 _atom_site_charge
Cu  Cu1  1  0.50000000  0.50000000  0.00000000  1.0 0.5741409825
Cu  Cu2  1  0.50000000  0.00000000  0.50000000  1.0 0.5741409825
B  B1  1  0.61475000  0.52420000  0.68115000  1.0 0.011132445
B  B2  1  0.38525000  0.02420000  0.81885000  1.0 0.011132445
B  B3  1  0.38525000  0.47580000  0.31885000  1.0 0.011132445
B  B4  1  0.61475000  0.97580000  0.18115000  1.0 0.011132445
H  H1  1  0.46205000  0.42032000  0.77082000  1.0 0.1212378869
H  H2  1  0.74707000  0.71271000  0.01441000  1.0 0.1267175467
H  H3  1  0.74100000  0.49300000  0.71500000  1.0 -0.0849244206
H  H4  1  0.52300000  0.43500000  0.62500000  1.0 -0.0693306348
H  H5  1  0.53795000  0.92032000  0.72918000  1.0 0.1212378869
H  H6  1  0.25293000  0.21271000  0.48559000  1.0 0.1267175467
H  H7  1  0.25900000  0.99300000  0.78500000  1.0 -0.0849244206
H  H8  1  0.47700000  0.93500000  0.87500000  1.0 -0.0693306348
H  H9  1  0.53795000  0.57968000  0.22918000  1.0 0.1212378869
H  H10  1  0.25293000  0.28729000  0.98559000  1.0 0.1267175467
H  H11  1  0.25900000  0.50700000  0.28500000  1.0 -0.0849244206
H  H12  1  0.47700000  0.56500000  0.37500000  1.0 -0.0693306348
H  H13  1  0.46205000  0.07968000  0.27082000  1.0 0.1212378869
H  H14  1  0.74707000  0.78729000  0.51441000  1.0 0.1267175467
H  H15  1  0.74100000  0.00700000  0.21500000  1.0 -0.0849244206
H  H16  1  0.52300000  0.06500000  0.12500000  1.0 -0.0693306348
C  C1  1  0.56240000  0.67460000  0.60523000  1.0 0.238378355
C  C2  1  0.53828000  0.49500000  0.81496000  1.0 0.1212378869
C  C3  1  0.69355000  0.65440000  0.94637000  1.0 0.1267175467
C  C4  1  0.43760000  0.17460000  0.89477000  1.0 0.238378355
C  C5  1  0.46172000  0.99500000  0.68504000  1.0 0.1212378869
C  C6  1  0.30645000  0.15440000  0.55363000  1.0 0.1267175467
C  C7  1  0.43760000  0.32540000  0.39477000  1.0 0.238378355
C  C8  1  0.46172000  0.50500000  0.18504000  1.0 0.1212378869
C  C9  1  0.30645000  0.34560000  0.05363000  1.0 0.1267175467
C  C10  1  0.56240000  0.82540000  0.10523000  1.0 0.238378355
C  C11  1  0.53828000  0.00500000  0.31496000  1.0 0.1212378869
C  C12  1  0.69355000  0.84560000  0.44637000  1.0 0.1267175467
N  N1  1  0.61803000  0.56006000  0.78621000  1.0 0.0716271305
N  N2  1  0.52789000  0.78489000  0.55417000  1.0 -0.3706408872
N  N3  1  0.58206000  0.55111000  0.91616000  1.0 -0.3230192496
N  N4  1  0.71915000  0.66466000  0.87045000  1.0 -0.2562040968
N  N5  1  0.38197000  0.06006000  0.71379000  1.0 0.0716271305
N  N6  1  0.47211000  0.28489000  0.94583000  1.0 -0.3706408872
N  N7  1  0.41794000  0.05111000  0.58384000  1.0 -0.3230192496
N  N8  1  0.28085000  0.16466000  0.62955000  1.0 -0.2562040968
N  N9  1  0.38197000  0.43994000  0.21379000  1.0 0.0716271305
N  N10  1  0.47211000  0.21511000  0.44583000  1.0 -0.3706408872
N  N11  1  0.41794000  0.44889000  0.08384000  1.0 -0.3230192496
N  N12  1  0.28085000  0.33534000  0.12955000  1.0 -0.2562040968
N  N13  1  0.61803000  0.93994000  0.28621000  1.0 0.0716271305
N  N14  1  0.52789000  0.71511000  0.05417000  1.0 -0.3706408872
N  N15  1  0.58206000  0.94889000  0.41616000  1.0 -0.3230192496
N  N16  1  0.71915000  0.83534000  0.37045000  1.0 -0.2562040968
