# DDEC6 charges by PACMAN v1.1 (https://github.com/mtap-research/PACMAN-charge/)
data_WEGJUP_ASR_pacman
_symmetry_space_group_name_H-M   'P 1'
_cell_length_a   13.98180000
_cell_length_b   13.98180000
_cell_length_c   13.98180000
_cell_angle_alpha   92.77260000
_cell_angle_beta   92.77260000
_cell_angle_gamma   92.77260000
_symmetry_Int_Tables_number   1
_chemical_formula_structural   Al2(PO4)3
_chemical_formula_sum   'Al12 P18 O72'
_cell_volume   2723.39157637
_cell_formula_units_Z   6
loop_
 _symmetry_equiv_pos_site_id
 _symmetry_equiv_pos_as_xyz
  1  'x, y, z'
loop_
 _atom_site_type_symbol
 _atom_site_label
 _atom_site_symmetry_multiplicity
 _atom_site_fract_x
 _atom_site_fract_y
 _atom_site_fract_z
 _atom_site_occupancy
 _atom_site_charge
Al  Al1  1  0.77950000  0.27039000  0.09783000  1.0 1.6244100993
Al  Al2  1  0.27039000  0.09783000  0.77950000  1.0 1.631693167
Al  Al3  1  0.09783000  0.77950000  0.27039000  1.0 1.631693167
Al  Al4  1  0.22050000  0.72961000  0.90217000  1.0 1.631693167
Al  Al5  1  0.72961000  0.90217000  0.22050000  1.0 1.631693167
Al  Al6  1  0.90217000  0.22050000  0.72961000  1.0 1.631693167
Al  Al7  1  0.77242000  0.27342000  0.35622000  1.0 1.6630880301
Al  Al8  1  0.27342000  0.35622000  0.77242000  1.0 1.6630880301
Al  Al9  1  0.35622000  0.77242000  0.27342000  1.0 1.6656110947
Al  Al10  1  0.22758000  0.72658000  0.64378000  1.0 1.6656110947
Al  Al11  1  0.72658000  0.64378000  0.22758000  1.0 1.6630880301
Al  Al12  1  0.64378000  0.22758000  0.72658000  1.0 1.6630880301
P  P1  1  0.68018000  0.11489000  0.21543000  1.0 1.2435271606
P  P2  1  0.11489000  0.21543000  0.68018000  1.0 1.246741798
P  P3  1  0.21543000  0.68018000  0.11489000  1.0 1.246741798
P  P4  1  0.31982000  0.88511000  0.78457000  1.0 1.246741798
P  P5  1  0.88511000  0.78457000  0.31982000  1.0 1.2435271606
P  P6  1  0.78457000  0.31982000  0.88511000  1.0 1.2435271606
P  P7  1  0.68343000  0.42201000  0.22447000  1.0 1.2767963473
P  P8  1  0.42201000  0.22447000  0.68343000  1.0 1.2767963473
P  P9  1  0.22447000  0.68343000  0.42201000  1.0 1.2767963473
P  P10  1  0.31657000  0.57799000  0.77553000  1.0 1.2767963473
P  P11  1  0.57799000  0.77553000  0.31657000  1.0 1.2767963473
P  P12  1  0.77553000  0.31657000  0.57799000  1.0 1.2767963473
P  P13  1  0.95731000  0.27751000  0.23912000  1.0 1.2598730191
P  P14  1  0.27751000  0.23912000  0.95731000  1.0 1.2680637702
P  P15  1  0.23912000  0.95731000  0.27751000  1.0 1.2680637702
P  P16  1  0.04269000  0.72249000  0.76088000  1.0 1.2680637702
P  P17  1  0.72249000  0.76088000  0.04269000  1.0 1.2598730191
P  P18  1  0.76088000  0.04269000  0.72249000  1.0 1.2598730191
O  O1  1  0.57515000  0.09305000  0.20385000  1.0 -0.4011207581
O  O2  1  0.09305000  0.20385000  0.57515000  1.0 -0.4011207581
O  O3  1  0.20385000  0.57515000  0.09305000  1.0 -0.4091121192
O  O4  1  0.42485000  0.90695000  0.79615000  1.0 -0.4091121192
O  O5  1  0.90695000  0.79615000  0.42485000  1.0 -0.4011207581
O  O6  1  0.79615000  0.42485000  0.90695000  1.0 -0.4091121192
O  O7  1  0.71799000  0.16889000  0.13079000  1.0 -0.6812077994
O  O8  1  0.16889000  0.13079000  0.71799000  1.0 -0.6868034239
O  O9  1  0.13079000  0.71799000  0.16889000  1.0 -0.6868034239
O  O10  1  0.28201000  0.83111000  0.86921000  1.0 -0.6812077994
O  O11  1  0.83111000  0.86921000  0.28201000  1.0 -0.6812077994
O  O12  1  0.86921000  0.28201000  0.83111000  1.0 -0.6812077994
O  O13  1  0.73580000  0.02380000  0.22030000  1.0 -0.6213783359
O  O14  1  0.02380000  0.22030000  0.73580000  1.0 -0.6213783359
O  O15  1  0.22030000  0.73580000  0.02380000  1.0 -0.6213783359
O  O16  1  0.26420000  0.97620000  0.77970000  1.0 -0.6213783359
O  O17  1  0.97620000  0.77970000  0.26420000  1.0 -0.6213783359
O  O18  1  0.77970000  0.26420000  0.97620000  1.0 -0.6213783359
O  O19  1  0.70677000  0.17357000  0.30857000  1.0 -0.6999169226
O  O20  1  0.17357000  0.30857000  0.70677000  1.0 -0.6999169226
O  O21  1  0.30857000  0.70677000  0.17357000  1.0 -0.6999169226
O  O22  1  0.29323000  0.82643000  0.69143000  1.0 -0.6999169226
O  O23  1  0.82643000  0.69143000  0.29323000  1.0 -0.6999169226
O  O24  1  0.69143000  0.29323000  0.82643000  1.0 -0.6999169226
O  O25  1  0.71840000  0.37390000  0.31510000  1.0 -0.7779124911
O  O26  1  0.37390000  0.31510000  0.71840000  1.0 -0.7647418912
O  O27  1  0.31510000  0.71840000  0.37390000  1.0 -0.7660239473
O  O28  1  0.28160000  0.62610000  0.68490000  1.0 -0.7660239473
O  O29  1  0.62610000  0.68490000  0.28160000  1.0 -0.7660239473
O  O30  1  0.68490000  0.28160000  0.62610000  1.0 -0.7779124911
O  O31  1  0.73040000  0.52300000  0.23110000  1.0 -0.5797385112
O  O32  1  0.52300000  0.23110000  0.73040000  1.0 -0.5797385112
O  O33  1  0.23110000  0.73040000  0.52300000  1.0 -0.5797385112
O  O34  1  0.26960000  0.47700000  0.76890000  1.0 -0.5797385112
O  O35  1  0.47700000  0.76890000  0.26960000  1.0 -0.5797385112
O  O36  1  0.76890000  0.26960000  0.47700000  1.0 -0.5797385112
O  O37  1  0.57700000  0.42420000  0.21660000  1.0 -0.4011207581
O  O38  1  0.42420000  0.21660000  0.57700000  1.0 -0.4011207581
O  O39  1  0.21660000  0.57700000  0.42420000  1.0 -0.4011207581
O  O40  1  0.42300000  0.57580000  0.78340000  1.0 -0.4011207581
O  O41  1  0.57580000  0.78340000  0.42300000  1.0 -0.4011207581
O  O42  1  0.78340000  0.42300000  0.57580000  1.0 -0.4091121192
O  O43  1  0.01110000  0.37400000  0.24880000  1.0 -0.3220297705
O  O44  1  0.37400000  0.24880000  0.01110000  1.0 -0.3284132119
O  O45  1  0.24880000  0.01110000  0.37400000  1.0 -0.3284132119
O  O46  1  0.98890000  0.62600000  0.75120000  1.0 -0.3220297705
O  O47  1  0.62600000  0.75120000  0.98890000  1.0 -0.3220297705
O  O48  1  0.75120000  0.98890000  0.62600000  1.0 -0.3220297705
O  O49  1  0.72160000  0.37000000  0.13700000  1.0 -0.7319566841
O  O50  1  0.37000000  0.13700000  0.72160000  1.0 -0.7469757731
O  O51  1  0.13700000  0.72160000  0.37000000  1.0 -0.7394466485
O  O52  1  0.27840000  0.63000000  0.86300000  1.0 -0.7394466485
O  O53  1  0.63000000  0.86300000  0.27840000  1.0 -0.7319566841
O  O54  1  0.86300000  0.27840000  0.63000000  1.0 -0.7319566841
O  O55  1  0.88960000  0.27150000  0.32400000  1.0 -0.7132589753
O  O56  1  0.27150000  0.32400000  0.88960000  1.0 -0.7319566841
O  O57  1  0.32400000  0.88960000  0.27150000  1.0 -0.717956015
O  O58  1  0.11040000  0.72850000  0.67600000  1.0 -0.717956015
O  O59  1  0.72850000  0.67600000  0.11040000  1.0 -0.717956015
O  O60  1  0.67600000  0.11040000  0.72850000  1.0 -0.717956015
O  O61  1  0.89540000  0.27520000  0.14470000  1.0 -0.7394466485
O  O62  1  0.27520000  0.14470000  0.89540000  1.0 -0.7319566841
O  O63  1  0.14470000  0.89540000  0.27520000  1.0 -0.7319566841
O  O64  1  0.10460000  0.72480000  0.85530000  1.0 -0.7319566841
O  O65  1  0.72480000  0.85530000  0.10460000  1.0 -0.7394466485
O  O66  1  0.85530000  0.10460000  0.72480000  1.0 -0.7319566841
O  O67  1  0.02150000  0.19700000  0.24020000  1.0 -0.4011207581
O  O68  1  0.19700000  0.24020000  0.02150000  1.0 -0.4011207581
O  O69  1  0.24020000  0.02150000  0.19700000  1.0 -0.4091121192
O  O70  1  0.97850000  0.80300000  0.75980000  1.0 -0.4091121192
O  O71  1  0.80300000  0.75980000  0.97850000  1.0 -0.4011207581
O  O72  1  0.75980000  0.97850000  0.80300000  1.0 -0.4011207581
