# DDEC6 charges by PACMAN v1.1 (https://github.com/mtap-research/PACMAN-charge/)
data_WEHNAA_FSR_pacman
_symmetry_space_group_name_H-M   'P 1'
_cell_length_a   15.39150000
_cell_length_b   15.39150000
_cell_length_c   9.70301000
_cell_angle_alpha   84.77800000
_cell_angle_beta   95.22200000
_cell_angle_gamma   147.48700000
_symmetry_Int_Tables_number   1
_chemical_formula_structural   MgP4C12(NO6)2
_chemical_formula_sum   'Mg2 P8 C24 N4 O24'
_cell_volume   1229.92596937
_cell_formula_units_Z   2
loop_
 _symmetry_equiv_pos_site_id
 _symmetry_equiv_pos_as_xyz
  1  'x, y, z'
loop_
 _atom_site_type_symbol
 _atom_site_label
 _atom_site_symmetry_multiplicity
 _atom_site_fract_x
 _atom_site_fract_y
 _atom_site_fract_z
 _atom_site_occupancy
 _atom_site_charge
Mg  Mg1  1  0.00000000  0.50000000  0.00000000  1.0 1.5523275805
Mg  Mg2  1  0.50000000  0.00000000  0.50000000  1.0 1.5523275805
P  P1  1  0.27638000  0.57542000  0.93890000  1.0 1.2013825846
P  P2  1  0.57542000  0.27638000  0.56110000  1.0 1.2013825846
P  P3  1  0.72362000  0.42458000  0.06110000  1.0 1.2013825846
P  P4  1  0.42458000  0.72362000  0.43890000  1.0 1.2013825846
P  P5  1  0.80074000  0.22726000  0.75990000  1.0 1.2225648535
P  P6  1  0.22726000  0.80074000  0.74010000  1.0 1.2225648535
P  P7  1  0.19926000  0.77274000  0.24010000  1.0 1.2225648535
P  P8  1  0.77274000  0.19926000  0.25990000  1.0 1.2225648535
C  C1  1  0.44250000  0.79030000  0.95970000  1.0 0.0623218543
C  C2  1  0.79030000  0.44250000  0.54030000  1.0 0.0623218543
C  C3  1  0.55750000  0.20970000  0.04030000  1.0 0.0671665964
C  C4  1  0.20970000  0.55750000  0.45970000  1.0 0.0623218543
C  C5  1  0.67520000  0.06880000  0.89230000  1.0 0.0499626023
C  C6  1  0.06880000  0.67520000  0.60770000  1.0 0.0499626023
C  C7  1  0.32480000  0.93120000  0.10770000  1.0 0.0499626023
C  C8  1  0.93120000  0.32480000  0.39230000  1.0 0.0499626023
C  C9  1  0.63486000  0.88634000  0.82330000  1.0 0.3023908658
C  C10  1  0.88634000  0.63486000  0.67670000  1.0 0.3023908658
C  C11  1  0.36514000  0.11366000  0.17670000  1.0 0.3023908658
C  C12  1  0.11366000  0.36514000  0.32330000  1.0 0.3023908658
C  C13  1  0.75770000  0.96170000  0.93480000  1.0 0.0423460917
C  C14  1  0.96170000  0.75770000  0.56520000  1.0 0.0423460917
C  C15  1  0.24230000  0.03830000  0.06520000  1.0 0.0423460917
C  C16  1  0.03830000  0.24230000  0.43480000  1.0 0.0423460917
C  C17  1  0.84319000  0.95281000  0.90970000  1.0 0.0671665964
C  C18  1  0.95281000  0.84319000  0.59030000  1.0 0.0671665964
C  C19  1  0.15681000  0.04719000  0.09030000  1.0 0.0623218543
C  C20  1  0.04719000  0.15681000  0.40970000  1.0 0.0671665964
C  C21  1  0.96659000  0.01641000  0.00960000  1.0 0.0623218543
C  C22  1  0.01641000  0.96659000  0.49040000  1.0 0.0671665964
C  C23  1  0.03341000  0.98359000  0.99040000  1.0 0.0623218543
C  C24  1  0.98359000  0.03341000  0.50960000  1.0 0.0623218543
N  N1  1  0.55525000  0.90375000  0.84370000  1.0 0.0623218543
N  N2  1  0.90375000  0.55525000  0.65630000  1.0 0.0623218543
N  N3  1  0.44475000  0.09625000  0.15630000  1.0 0.0623218543
N  N4  1  0.09625000  0.44475000  0.34370000  1.0 0.0623218543
O  O1  1  0.14052000  0.50128000  0.01690000  1.0 -0.7381376254
O  O2  1  0.50128000  0.14052000  0.48310000  1.0 -0.7381376254
O  O3  1  0.85948000  0.49872000  0.98310000  1.0 -0.7381376254
O  O4  1  0.49872000  0.85948000  0.51690000  1.0 -0.7381376254
O  O5  1  0.33266000  0.53234000  0.00490000  1.0 -0.6118031072
O  O6  1  0.53234000  0.33266000  0.49510000  1.0 -0.6118031072
O  O7  1  0.66734000  0.46766000  0.99510000  1.0 -0.6118031072
O  O8  1  0.46766000  0.66734000  0.50490000  1.0 -0.6118031072
O  O9  1  0.23700000  0.53300000  0.78910000  1.0 -0.5084906298
O  O10  1  0.53300000  0.23700000  0.71090000  1.0 -0.5084906298
O  O11  1  0.76300000  0.46700000  0.21090000  1.0 -0.5084906298
O  O12  1  0.46700000  0.76300000  0.28910000  1.0 -0.5084906298
O  O13  1  0.69720000  0.16040000  0.63240000  1.0 -0.7381376254
O  O14  1  0.16040000  0.69720000  0.86760000  1.0 -0.7381376254
O  O15  1  0.30280000  0.83960000  0.36760000  1.0 -0.7381376254
O  O16  1  0.83960000  0.30280000  0.13240000  1.0 -0.7381376254
O  O17  1  0.87236000  0.37004000  0.81360000  1.0 -0.7001131701
O  O18  1  0.37004000  0.87236000  0.68640000  1.0 -0.7001131701
O  O19  1  0.12764000  0.62996000  0.18640000  1.0 -0.7001131701
O  O20  1  0.62996000  0.12764000  0.31360000  1.0 -0.7001131701
O  O21  1  0.92273000  0.26427000  0.71950000  1.0 -0.5534719753
O  O22  1  0.26427000  0.92273000  0.78050000  1.0 -0.5534719753
O  O23  1  0.07727000  0.73573000  0.28050000  1.0 -0.5534719753
O  O24  1  0.73573000  0.07727000  0.21950000  1.0 -0.5534719753
