# DDEC6 charges by PACMAN v1.1 (https://github.com/mtap-research/PACMAN-charge/)
data_WEHQAC_FSR_pacman
_symmetry_space_group_name_H-M   'P 1'
_cell_length_a   21.42780000
_cell_length_b   19.89440000
_cell_length_c   15.62090000
_cell_angle_alpha   73.10290000
_cell_angle_beta   62.66800000
_cell_angle_gamma   44.22910000
_symmetry_Int_Tables_number   1
_chemical_formula_structural   AgH16C32N4O
_chemical_formula_sum   'Ag4 H64 C128 N16 O4'
_cell_volume   4118.44197697
_cell_formula_units_Z   4
loop_
 _symmetry_equiv_pos_site_id
 _symmetry_equiv_pos_as_xyz
  1  'x, y, z'
loop_
 _atom_site_type_symbol
 _atom_site_label
 _atom_site_symmetry_multiplicity
 _atom_site_fract_x
 _atom_site_fract_y
 _atom_site_fract_z
 _atom_site_occupancy
 _atom_site_charge
Ag  Ag1  1  0.19851000  0.19851000  0.30149000  1.0 0.3558900596
Ag  Ag2  1  0.30149000  0.30149000  0.19851000  1.0 0.3558900596
Ag  Ag3  1  0.05149000  0.05149000  0.94851000  1.0 0.3558900596
Ag  Ag4  1  0.94851000  0.94851000  0.05149000  1.0 0.3558900596
H  H1  1  0.22270000  0.09710000  0.16150000  1.0 0.1203901907
H  H2  1  0.51869000  0.16150000  0.09710000  1.0 0.1203901907
H  H3  1  0.16150000  0.51869000  0.22270000  1.0 0.1203901907
H  H4  1  0.09710000  0.22270000  0.51869000  1.0 0.1203901907
H  H5  1  0.02730000  0.15290000  0.08850000  1.0 0.1203901907
H  H6  1  0.73131000  0.08850000  0.15290000  1.0 0.1203901907
H  H7  1  0.08850000  0.73131000  0.02730000  1.0 0.1203901907
H  H8  1  0.15290000  0.02730000  0.73131000  1.0 0.1203901907
H  H9  1  0.20080000  0.99880000  0.16520000  1.0 0.1203901907
H  H10  1  0.63519000  0.16520000  0.99880000  1.0 0.1203901907
H  H11  1  0.16520000  0.63519000  0.20080000  1.0 0.1203901907
H  H12  1  0.99880000  0.20080000  0.63519000  1.0 0.1203901907
H  H13  1  0.04920000  0.25120000  0.08480000  1.0 0.1203901907
H  H14  1  0.61481000  0.08480000  0.25120000  1.0 0.1203901907
H  H15  1  0.08480000  0.61481000  0.04920000  1.0 0.1203901907
H  H16  1  0.25120000  0.04920000  0.61481000  1.0 0.1203901907
H  H17  1  0.33130000  0.83890000  0.11030000  1.0 0.1203901907
H  H18  1  0.71949000  0.11030000  0.83890000  1.0 0.1203901907
H  H19  1  0.11030000  0.71949000  0.33130000  1.0 0.1203901907
H  H20  1  0.83890000  0.33130000  0.71949000  1.0 0.1203901907
H  H21  1  0.91870000  0.41110000  0.13970000  1.0 0.1203901907
H  H22  1  0.53051000  0.13970000  0.41110000  1.0 0.1203901907
H  H23  1  0.13970000  0.53051000  0.91870000  1.0 0.1203901907
H  H24  1  0.41110000  0.91870000  0.53051000  1.0 0.1203901907
H  H25  1  0.50950000  0.87350000  0.04850000  1.0 0.1293404553
H  H26  1  0.56849000  0.04850000  0.87350000  1.0 0.1293404553
H  H27  1  0.04850000  0.56849000  0.50950000  1.0 0.1293404553
H  H28  1  0.87350000  0.50950000  0.56849000  1.0 0.1293404553
H  H29  1  0.74050000  0.37650000  0.20150000  1.0 0.1293404553
H  H30  1  0.68151000  0.20150000  0.37650000  1.0 0.1293404553
H  H31  1  0.20150000  0.68151000  0.74050000  1.0 0.1293404553
H  H32  1  0.37650000  0.74050000  0.68151000  1.0 0.1293404553
H  H33  1  0.61380000  0.50920000  0.99800000  1.0 0.1293404553
H  H34  1  0.87899000  0.99800000  0.50920000  1.0 0.1293404553
H  H35  1  0.99800000  0.87899000  0.61380000  1.0 0.1293404553
H  H36  1  0.50920000  0.61380000  0.87899000  1.0 0.1293404553
H  H37  1  0.63620000  0.74080000  0.25200000  1.0 0.1293404553
H  H38  1  0.37101000  0.25200000  0.74080000  1.0 0.1293404553
H  H39  1  0.25200000  0.37101000  0.63620000  1.0 0.1293404553
H  H40  1  0.74080000  0.63620000  0.37101000  1.0 0.1293404553
H  H41  1  0.75610000  0.35250000  0.94050000  1.0 0.1203901907
H  H42  1  0.95089000  0.94050000  0.35250000  1.0 0.1203901907
H  H43  1  0.94050000  0.95089000  0.75610000  1.0 0.1203901907
H  H44  1  0.35250000  0.75610000  0.95089000  1.0 0.1203901907
H  H45  1  0.49390000  0.89750000  0.30950000  1.0 0.1203901907
H  H46  1  0.29911000  0.30950000  0.89750000  1.0 0.1203901907
H  H47  1  0.30950000  0.29911000  0.49390000  1.0 0.1203901907
H  H48  1  0.89750000  0.49390000  0.29911000  1.0 0.1203901907
H  H49  1  0.90460000  0.41640000  0.90900000  1.0 0.1203901907
H  H50  1  0.76999000  0.90900000  0.41640000  1.0 0.1203901907
H  H51  1  0.90900000  0.76999000  0.90460000  1.0 0.1203901907
H  H52  1  0.41640000  0.90460000  0.76999000  1.0 0.1203901907
H  H53  1  0.34540000  0.83360000  0.34100000  1.0 0.1203901907
H  H54  1  0.48001000  0.34100000  0.83360000  1.0 0.1203901907
H  H55  1  0.34100000  0.48001000  0.34540000  1.0 0.1203901907
H  H56  1  0.83360000  0.34540000  0.48001000  1.0 0.1203901907
H  H57  1  0.76240000  0.57220000  0.96540000  1.0 0.1293404553
H  H58  1  0.69999000  0.96540000  0.57220000  1.0 0.1293404553
H  H59  1  0.96540000  0.69999000  0.76240000  1.0 0.1293404553
H  H60  1  0.57220000  0.76240000  0.69999000  1.0 0.1293404553
H  H61  1  0.48760000  0.67780000  0.28460000  1.0 0.1293404553
H  H62  1  0.55001000  0.28460000  0.67780000  1.0 0.1293404553
H  H63  1  0.28460000  0.55001000  0.48760000  1.0 0.1293404553
H  H64  1  0.67780000  0.48760000  0.55001000  1.0 0.1293404553
C  C1  1  0.38382000  0.05572000  0.10408000  1.0 0.3035313727
C  C2  1  0.45637000  0.10408000  0.05572000  1.0 0.3035313727
C  C3  1  0.10408000  0.45637000  0.38382000  1.0 0.3035313727
C  C4  1  0.05572000  0.38382000  0.45637000  1.0 0.3035313727
C  C5  1  0.86618000  0.19428000  0.14592000  1.0 0.3035313727
C  C6  1  0.79363000  0.14592000  0.19428000  1.0 0.3035313727
C  C7  1  0.14592000  0.79363000  0.86618000  1.0 0.3035313727
C  C8  1  0.19428000  0.86618000  0.79363000  1.0 0.3035313727
C  C9  1  0.36805000  0.99529000  0.10471000  1.0 0.0059425511
C  C10  1  0.53194000  0.10471000  0.99529000  1.0 0.0059425511
C  C11  1  0.10471000  0.53194000  0.36805000  1.0 0.0059425511
C  C12  1  0.99529000  0.36805000  0.53194000  1.0 0.0059425511
C  C13  1  0.88195000  0.25471000  0.14529000  1.0 0.0059425511
C  C14  1  0.71806000  0.14529000  0.25471000  1.0 0.0059425511
C  C15  1  0.14529000  0.71806000  0.88195000  1.0 0.0059425511
C  C16  1  0.25471000  0.88195000  0.71806000  1.0 0.0059425511
C  C17  1  0.27580000  0.03260000  0.13960000  1.0 -0.1500614487
C  C18  1  0.55199000  0.13960000  0.03260000  1.0 -0.1500614487
C  C19  1  0.13960000  0.55199000  0.27580000  1.0 -0.1500614487
C  C20  1  0.03260000  0.27580000  0.55199000  1.0 -0.1500614487
C  C21  1  0.97420000  0.21740000  0.11040000  1.0 -0.1500614487
C  C22  1  0.69801000  0.11040000  0.21740000  1.0 -0.1500614487
C  C23  1  0.11040000  0.69801000  0.97420000  1.0 -0.1500614487
C  C24  1  0.21740000  0.97420000  0.69801000  1.0 -0.1500614487
C  C25  1  0.26299000  0.97379000  0.14161000  1.0 -0.084578669
C  C26  1  0.62160000  0.14161000  0.97379000  1.0 -0.084578669
C  C27  1  0.14161000  0.62160000  0.26299000  1.0 -0.084578669
C  C28  1  0.97379000  0.26299000  0.62160000  1.0 -0.084578669
C  C29  1  0.98701000  0.27621000  0.10839000  1.0 -0.084578669
C  C30  1  0.62840000  0.10839000  0.27621000  1.0 -0.084578669
C  C31  1  0.10839000  0.62840000  0.98701000  1.0 -0.084578669
C  C32  1  0.27621000  0.98701000  0.62840000  1.0 -0.084578669
C  C33  1  0.34139000  0.87759000  0.10901000  1.0 -0.1500614487
C  C34  1  0.67200000  0.10901000  0.87759000  1.0 -0.1500614487
C  C35  1  0.10901000  0.67200000  0.34139000  1.0 -0.1500614487
C  C36  1  0.87759000  0.34139000  0.67200000  1.0 -0.1500614487
C  C37  1  0.90861000  0.37241000  0.14099000  1.0 -0.1500614487
C  C38  1  0.57800000  0.14099000  0.37241000  1.0 -0.1500614487
C  C39  1  0.14099000  0.57800000  0.90861000  1.0 -0.1500614487
C  C40  1  0.37241000  0.90861000  0.57800000  1.0 -0.1500614487
C  C41  1  0.43366000  0.83906000  0.07474000  1.0 0.1369075335
C  C42  1  0.65253000  0.07474000  0.83906000  1.0 0.1369075335
C  C43  1  0.07474000  0.65253000  0.43366000  1.0 0.1369075335
C  C44  1  0.83906000  0.43366000  0.65253000  1.0 0.1369075335
C  C45  1  0.81634000  0.41094000  0.17526000  1.0 0.1369075335
C  C46  1  0.59747000  0.17526000  0.41094000  1.0 0.1369075335
C  C47  1  0.17526000  0.59747000  0.81634000  1.0 0.1369075335
C  C48  1  0.41094000  0.81634000  0.59747000  1.0 0.1369075335
C  C49  1  0.44734000  0.89850000  0.07210000  1.0 -0.1741814225
C  C50  1  0.58205000  0.07210000  0.89850000  1.0 -0.1741814225
C  C51  1  0.07210000  0.58205000  0.44734000  1.0 -0.1741814225
C  C52  1  0.89850000  0.44734000  0.58205000  1.0 -0.1741814225
C  C53  1  0.80266000  0.35150000  0.17790000  1.0 -0.1741814225
C  C54  1  0.66795000  0.17790000  0.35150000  1.0 -0.1741814225
C  C55  1  0.17790000  0.66795000  0.80266000  1.0 -0.1751951038
C  C56  1  0.35150000  0.80266000  0.66795000  1.0 -0.1741814225
C  C57  1  0.51643000  0.73843000  0.04417000  1.0 -0.1127085763
C  C58  1  0.70096000  0.04417000  0.73843000  1.0 -0.1127085763
C  C59  1  0.04417000  0.70096000  0.51643000  1.0 -0.1127085763
C  C60  1  0.73843000  0.51643000  0.70096000  1.0 -0.1127085763
C  C61  1  0.73357000  0.51157000  0.20583000  1.0 -0.1127085763
C  C62  1  0.54904000  0.20583000  0.51157000  1.0 -0.1127085763
C  C63  1  0.20583000  0.54904000  0.73357000  1.0 -0.1127085763
C  C64  1  0.51157000  0.73357000  0.54904000  1.0 -0.1127085763
C  C65  1  0.58668000  0.65628000  0.01932000  1.0 -0.1127085763
C  C66  1  0.73771000  0.01932000  0.65628000  1.0 -0.1127085763
C  C67  1  0.01932000  0.73771000  0.58668000  1.0 -0.1127085763
C  C68  1  0.65628000  0.58668000  0.73771000  1.0 -0.1127085763
C  C69  1  0.66332000  0.59372000  0.23068000  1.0 -0.1127085763
C  C70  1  0.51229000  0.23068000  0.59372000  1.0 -0.1127085763
C  C71  1  0.23068000  0.51229000  0.66332000  1.0 -0.1127085763
C  C72  1  0.59372000  0.66332000  0.51229000  1.0 -0.1127085763
C  C73  1  0.67470000  0.55730000  0.98530000  1.0 0.1369075335
C  C74  1  0.78269000  0.98530000  0.55730000  1.0 0.1369075335
C  C75  1  0.98530000  0.78269000  0.67470000  1.0 0.1369075335
C  C76  1  0.55730000  0.67470000  0.78269000  1.0 0.1369075335
C  C77  1  0.57530000  0.69270000  0.26470000  1.0 0.1369075335
C  C78  1  0.46731000  0.26470000  0.69270000  1.0 0.1369075335
C  C79  1  0.26470000  0.46731000  0.57530000  1.0 0.1369075335
C  C80  1  0.69270000  0.57530000  0.46731000  1.0 0.1369075335
C  C81  1  0.67260000  0.49040000  0.97920000  1.0 -0.1500614487
C  C82  1  0.85779000  0.97920000  0.49040000  1.0 -0.1500614487
C  C83  1  0.97920000  0.85779000  0.67260000  1.0 -0.1500614487
C  C84  1  0.49040000  0.67260000  0.85779000  1.0 -0.1500614487
C  C85  1  0.57740000  0.75960000  0.27080000  1.0 -0.1500614487
C  C86  1  0.39221000  0.27080000  0.75960000  1.0 -0.1500614487
C  C87  1  0.27080000  0.39221000  0.57740000  1.0 -0.1500614487
C  C88  1  0.75960000  0.57740000  0.39221000  1.0 -0.1500614487
C  C89  1  0.75760000  0.39680000  0.94540000  1.0 -0.139100265
C  C90  1  0.90019000  0.94540000  0.39680000  1.0 -0.139100265
C  C91  1  0.94540000  0.90019000  0.75760000  1.0 -0.139100265
C  C92  1  0.39680000  0.75760000  0.90019000  1.0 -0.139100265
C  C93  1  0.49240000  0.85320000  0.30460000  1.0 -0.139100265
C  C94  1  0.34981000  0.30460000  0.85320000  1.0 -0.139100265
C  C95  1  0.30460000  0.34981000  0.49240000  1.0 -0.139100265
C  C96  1  0.85320000  0.49240000  0.34981000  1.0 -0.139100265
C  C97  1  0.84430000  0.36890000  0.91890000  1.0 0.0236076351
C  C98  1  0.86789000  0.91890000  0.36890000  1.0 0.0236076351
C  C99  1  0.91890000  0.86789000  0.84430000  1.0 0.0236076351
C  C100  1  0.36890000  0.84430000  0.86789000  1.0 0.0236076351
C  C101  1  0.40570000  0.88110000  0.33110000  1.0 0.0236076351
C  C102  1  0.38211000  0.33110000  0.88110000  1.0 0.0236076351
C  C103  1  0.33110000  0.38211000  0.40570000  1.0 0.0236076351
C  C104  1  0.88110000  0.40570000  0.38211000  1.0 0.0236076351
C  C105  1  0.93288000  0.27008000  0.88732000  1.0 0.2741743641
C  C106  1  0.90971000  0.88732000  0.27008000  1.0 0.2741743641
C  C107  1  0.88732000  0.90971000  0.93288000  1.0 0.2741743641
C  C108  1  0.27008000  0.93288000  0.90971000  1.0 0.2741743641
C  C109  1  0.31712000  0.97992000  0.36268000  1.0 0.2741743641
C  C110  1  0.34029000  0.36268000  0.97992000  1.0 0.2741743641
C  C111  1  0.36268000  0.34029000  0.31712000  1.0 0.2741743641
C  C112  1  0.97992000  0.31712000  0.34029000  1.0 0.2741743641
C  C113  1  0.84610000  0.43490000  0.92650000  1.0 -0.1271553489
C  C114  1  0.79249000  0.92650000  0.43490000  1.0 -0.1271553489
C  C115  1  0.92650000  0.79249000  0.84610000  1.0 -0.1271553489
C  C116  1  0.43490000  0.84610000  0.79249000  1.0 -0.1271553489
C  C117  1  0.40390000  0.81510000  0.32350000  1.0 -0.1271553489
C  C118  1  0.45751000  0.32350000  0.81510000  1.0 -0.1271553489
C  C119  1  0.32350000  0.45751000  0.40390000  1.0 -0.1271553489
C  C120  1  0.81510000  0.40390000  0.45751000  1.0 -0.1271553489
C  C121  1  0.76080000  0.52820000  0.96000000  1.0 -0.139100265
C  C122  1  0.75099000  0.96000000  0.52820000  1.0 -0.139100265
C  C123  1  0.96000000  0.75099000  0.76080000  1.0 -0.139100265
C  C124  1  0.52820000  0.76080000  0.75099000  1.0 -0.139100265
C  C125  1  0.48920000  0.72180000  0.29000000  1.0 -0.139100265
C  C126  1  0.49901000  0.29000000  0.72180000  1.0 -0.139100265
C  C127  1  0.29000000  0.49901000  0.48920000  1.0 -0.139100265
C  C128  1  0.72180000  0.48920000  0.49901000  1.0 -0.139100265
N  N1  1  0.33180000  0.12844000  0.16104000  1.0 -0.2368017568
N  N2  1  0.37871000  0.16104000  0.12844000  1.0 -0.2368017568
N  N3  1  0.16104000  0.37871000  0.33180000  1.0 -0.2368017568
N  N4  1  0.12844000  0.33180000  0.37871000  1.0 -0.2368017568
N  N5  1  0.91820000  0.12156000  0.08896000  1.0 -0.2368017568
N  N6  1  0.87129000  0.08896000  0.12156000  1.0 -0.2368017568
N  N7  1  0.08896000  0.87129000  0.91820000  1.0 -0.2368017568
N  N8  1  0.12156000  0.91820000  0.87129000  1.0 -0.2368017568
N  N9  1  0.00226000  0.19266000  0.86374000  1.0 -0.3746921777
N  N10  1  0.94133000  0.86374000  0.19266000  1.0 -0.3754724919
N  N11  1  0.86374000  0.94133000  0.00226000  1.0 -0.3754724919
N  N12  1  0.19266000  0.00226000  0.94133000  1.0 -0.3746921777
N  N13  1  0.24774000  0.05734000  0.38626000  1.0 -0.3754724919
N  N14  1  0.30867000  0.38626000  0.05734000  1.0 -0.3746921777
N  N15  1  0.38626000  0.30867000  0.24774000  1.0 -0.3754724919
N  N16  1  0.05734000  0.24774000  0.30867000  1.0 -0.3754724919
O  O1  1  0.46460000  0.03540000  0.03540000  1.0 -0.1940978874
O  O2  1  0.03540000  0.46460000  0.46460000  1.0 -0.1940978874
O  O3  1  0.78540000  0.21460000  0.21460000  1.0 -0.1950065701
O  O4  1  0.21460000  0.78540000  0.78540000  1.0 -0.1940978874
