# DDEC6 charges by PACMAN v1.1 (https://github.com/mtap-research/PACMAN-charge/)
data_WEHRIL_ion_pacman
_symmetry_space_group_name_H-M   'P 1'
_cell_length_a   15.11850000
_cell_length_b   15.11850000
_cell_length_c   19.73400000
_cell_angle_alpha   72.49350000
_cell_angle_beta   107.50600000
_cell_angle_gamma   79.46700000
_symmetry_Int_Tables_number   1
_chemical_formula_structural   AgH16C32N4ClO5
_chemical_formula_sum   'Ag4 H64 C128 N16 Cl4 O20'
_cell_volume   3912.85644814
_cell_formula_units_Z   4
loop_
 _symmetry_equiv_pos_site_id
 _symmetry_equiv_pos_as_xyz
  1  'x, y, z'
loop_
 _atom_site_type_symbol
 _atom_site_label
 _atom_site_symmetry_multiplicity
 _atom_site_fract_x
 _atom_site_fract_y
 _atom_site_fract_z
 _atom_site_occupancy
 _atom_site_charge
Ag  Ag1  1  0.32684000  0.43294000  0.64743000  1.0 0.4349638026
Ag  Ag2  1  0.43294000  0.32684000  0.85257000  1.0 0.4353681009
Ag  Ag3  1  0.67316000  0.56706000  0.35257000  1.0 0.4353681009
Ag  Ag4  1  0.56706000  0.67316000  0.14743000  1.0 0.4353681009
H  H1  1  0.53370000  0.11430000  0.93020000  1.0 0.1223638612
H  H2  1  0.11430000  0.53370000  0.56980000  1.0 0.1223638612
H  H3  1  0.46630000  0.88570000  0.06980000  1.0 0.1223638612
H  H4  1  0.88570000  0.46630000  0.43020000  1.0 0.1223638612
H  H5  1  0.63330000  0.99610000  0.04980000  1.0 0.128706803
H  H6  1  0.99610000  0.63330000  0.45020000  1.0 0.128706803
H  H7  1  0.36670000  0.00390000  0.95020000  1.0 0.128706803
H  H8  1  0.00390000  0.36670000  0.54980000  1.0 0.128706803
H  H9  1  0.79150000  0.91350000  0.06990000  1.0 0.128706803
H  H10  1  0.91350000  0.79150000  0.43010000  1.0 0.128706803
H  H11  1  0.20850000  0.08650000  0.93010000  1.0 0.128706803
H  H12  1  0.08650000  0.20850000  0.56990000  1.0 0.128706803
H  H13  1  0.74330000  0.06450000  0.85010000  1.0 0.128706803
H  H14  1  0.06450000  0.74330000  0.64990000  1.0 0.128706803
H  H15  1  0.25670000  0.93550000  0.14990000  1.0 0.128706803
H  H16  1  0.93550000  0.25670000  0.35010000  1.0 0.128706803
H  H17  1  0.10430000  0.76850000  0.10680000  1.0 0.128706803
H  H18  1  0.76850000  0.10430000  0.39320000  1.0 0.128706803
H  H19  1  0.89570000  0.23150000  0.89320000  1.0 0.128706803
H  H20  1  0.23150000  0.89570000  0.60680000  1.0 0.128706803
H  H21  1  0.26240000  0.69680000  0.12590000  1.0 0.128706803
H  H22  1  0.69680000  0.26240000  0.37410000  1.0 0.128706803
H  H23  1  0.73760000  0.30320000  0.87410000  1.0 0.128706803
H  H24  1  0.30320000  0.73760000  0.62590000  1.0 0.128706803
H  H25  1  0.20560000  0.84540000  0.90410000  1.0 0.128706803
H  H26  1  0.84540000  0.20560000  0.59590000  1.0 0.128706803
H  H27  1  0.79440000  0.15460000  0.09590000  1.0 0.128706803
H  H28  1  0.15460000  0.79440000  0.40410000  1.0 0.128706803
H  H29  1  0.04990000  0.91930000  0.88780000  1.0 0.1404400903
H  H30  1  0.91930000  0.04990000  0.61220000  1.0 0.1404400903
H  H31  1  0.95010000  0.08070000  0.11220000  1.0 0.1404400903
H  H32  1  0.08070000  0.95010000  0.38780000  1.0 0.1404400903
H  H33  1  0.45090000  0.40890000  0.55970000  1.0 0.1223638612
H  H34  1  0.40890000  0.45090000  0.94030000  1.0 0.1223638612
H  H35  1  0.54910000  0.59110000  0.44030000  1.0 0.1223638612
H  H36  1  0.59110000  0.54910000  0.05970000  1.0 0.1223638612
H  H37  1  0.44420000  0.42940000  0.43830000  1.0 0.128706803
H  H38  1  0.42940000  0.44420000  0.06170000  1.0 0.128706803
H  H39  1  0.55580000  0.57060000  0.56170000  1.0 0.128706803
H  H40  1  0.57060000  0.55580000  0.93830000  1.0 0.128706803
H  H41  1  0.49790000  0.30050000  0.40690000  1.0 0.1223638612
H  H42  1  0.30050000  0.49790000  0.09310000  1.0 0.1223638612
H  H43  1  0.50210000  0.69950000  0.59310000  1.0 0.1223638612
H  H44  1  0.69950000  0.50210000  0.90690000  1.0 0.1223638612
H  H45  1  0.57250000  0.12330000  0.62650000  1.0 0.128706803
H  H46  1  0.12330000  0.57250000  0.87350000  1.0 0.128706803
H  H47  1  0.42750000  0.87670000  0.37350000  1.0 0.128706803
H  H48  1  0.87670000  0.42750000  0.12650000  1.0 0.128706803
H  H49  1  0.67850000  0.86290000  0.58840000  1.0 0.128706803
H  H50  1  0.86290000  0.67850000  0.91160000  1.0 0.128706803
H  H51  1  0.32150000  0.13710000  0.41160000  1.0 0.128706803
H  H52  1  0.13710000  0.32150000  0.08840000  1.0 0.128706803
H  H53  1  0.74270000  0.72290000  0.57390000  1.0 0.1223638612
H  H54  1  0.72290000  0.74270000  0.92610000  1.0 0.1223638612
H  H55  1  0.25730000  0.27710000  0.42610000  1.0 0.1223638612
H  H56  1  0.27710000  0.25730000  0.07390000  1.0 0.1223638612
H  H57  1  0.67660000  0.87120000  0.35100000  1.0 0.128706803
H  H58  1  0.87120000  0.67660000  0.14900000  1.0 0.128706803
H  H59  1  0.32340000  0.12880000  0.64900000  1.0 0.128706803
H  H60  1  0.12880000  0.32340000  0.85100000  1.0 0.128706803
H  H61  1  0.61540000  0.01580000  0.36480000  1.0 0.128706803
H  H62  1  0.01580000  0.61540000  0.13520000  1.0 0.128706803
H  H63  1  0.38460000  0.98420000  0.63520000  1.0 0.128706803
H  H64  1  0.98420000  0.38460000  0.86480000  1.0 0.128706803
C  C1  1  0.56410000  0.17430000  0.80230000  1.0 0.3228127163
C  C2  1  0.17430000  0.56410000  0.69770000  1.0 0.3228127163
C  C3  1  0.43590000  0.82570000  0.19770000  1.0 0.3228127163
C  C4  1  0.82570000  0.43590000  0.30230000  1.0 0.3228127163
C  C5  1  0.62920000  0.09860000  0.88000000  1.0 0.0080754623
C  C6  1  0.09860000  0.62920000  0.62000000  1.0 0.0080754623
C  C7  1  0.37080000  0.90140000  0.12000000  1.0 0.0080754623
C  C8  1  0.90140000  0.37080000  0.38000000  1.0 0.0080754623
C  C9  1  0.59620000  0.08000000  0.93850000  1.0 -0.1196569249
C  C10  1  0.08000000  0.59620000  0.56150000  1.0 -0.1196569249
C  C11  1  0.40380000  0.92000000  0.06150000  1.0 -0.1196569249
C  C12  1  0.92000000  0.40380000  0.43850000  1.0 -0.1196569249
C  C13  1  0.65590000  0.01030000  0.01010000  1.0 -0.0752350737
C  C14  1  0.01030000  0.65590000  0.48990000  1.0 -0.0752350737
C  C15  1  0.34410000  0.98970000  0.98990000  1.0 -0.0752350737
C  C16  1  0.98970000  0.34410000  0.51010000  1.0 -0.0731057216
C  C17  1  0.75100000  0.96100000  0.02210000  1.0 -0.1297456093
C  C18  1  0.96100000  0.75100000  0.47790000  1.0 -0.1297456093
C  C19  1  0.24900000  0.03900000  0.97790000  1.0 -0.1297456093
C  C20  1  0.03900000  0.24900000  0.52210000  1.0 -0.1297456093
C  C21  1  0.78460000  0.98320000  0.96310000  1.0 0.128706803
C  C22  1  0.98320000  0.78460000  0.53690000  1.0 0.128706803
C  C23  1  0.21540000  0.01680000  0.03690000  1.0 0.128706803
C  C24  1  0.01680000  0.21540000  0.46310000  1.0 0.128706803
C  C25  1  0.72230000  0.05110000  0.89080000  1.0 -0.1690250013
C  C26  1  0.05110000  0.72230000  0.60920000  1.0 -0.1690250013
C  C27  1  0.27770000  0.94890000  0.10920000  1.0 -0.1690250013
C  C28  1  0.94890000  0.27770000  0.39080000  1.0 -0.1690250013
C  C29  1  0.88000000  0.93380000  0.97540000  1.0 -0.0916332554
C  C30  1  0.93380000  0.88000000  0.52460000  1.0 -0.0916332554
C  C31  1  0.12000000  0.06620000  0.02460000  1.0 -0.0916332554
C  C32  1  0.06620000  0.12000000  0.47540000  1.0 -0.0916332554
C  C33  1  0.95990000  0.89690000  0.98330000  1.0 -0.101185265
C  C34  1  0.89690000  0.95990000  0.51670000  1.0 -0.101185265
C  C35  1  0.04010000  0.10310000  0.01670000  1.0 -0.0916332554
C  C36  1  0.10310000  0.04010000  0.48330000  1.0 -0.101185265
C  C37  1  0.06070000  0.85050000  0.99490000  1.0 0.1404400903
C  C38  1  0.85050000  0.06070000  0.50510000  1.0 0.1404400903
C  C39  1  0.93930000  0.14950000  0.00510000  1.0 0.1404400903
C  C40  1  0.14950000  0.93930000  0.49490000  1.0 0.1404400903
C  C41  1  0.12500000  0.78400000  0.06610000  1.0 -0.1470546039
C  C42  1  0.78400000  0.12500000  0.43390000  1.0 -0.1470546039
C  C43  1  0.87500000  0.21600000  0.93390000  1.0 -0.1470546039
C  C44  1  0.21600000  0.87500000  0.56610000  1.0 -0.1470546039
C  C45  1  0.21880000  0.74080000  0.07760000  1.0 -0.1196569249
C  C46  1  0.74080000  0.21880000  0.42240000  1.0 -0.1196569249
C  C47  1  0.78120000  0.25920000  0.92240000  1.0 -0.1196569249
C  C48  1  0.25920000  0.78120000  0.57760000  1.0 -0.1196569249
C  C49  1  0.24790000  0.76370000  0.01600000  1.0 0.0387368535
C  C50  1  0.76370000  0.24790000  0.48400000  1.0 0.0387368535
C  C51  1  0.75210000  0.23630000  0.98400000  1.0 0.0387368535
C  C52  1  0.23630000  0.75210000  0.51600000  1.0 0.0387368535
C  C53  1  0.34880000  0.72280000  0.02940000  1.0 0.2818010661
C  C54  1  0.72280000  0.34880000  0.47060000  1.0 0.2818010661
C  C55  1  0.65120000  0.27720000  0.97060000  1.0 0.2818010661
C  C56  1  0.27720000  0.65120000  0.52940000  1.0 0.2818010661
C  C57  1  0.18540000  0.83000000  0.94510000  1.0 -0.1196569249
C  C58  1  0.83000000  0.18540000  0.55490000  1.0 -0.1196569249
C  C59  1  0.81460000  0.17000000  0.05490000  1.0 -0.1196569249
C  C60  1  0.17000000  0.81460000  0.44510000  1.0 -0.1196569249
C  C61  1  0.09250000  0.87330000  0.93560000  1.0 -0.1470546039
C  C62  1  0.87330000  0.09250000  0.56440000  1.0 -0.1470546039
C  C63  1  0.90750000  0.12670000  0.06440000  1.0 -0.1470546039
C  C64  1  0.12670000  0.90750000  0.43560000  1.0 -0.1470546039
C  C65  1  0.51420000  0.24800000  0.68230000  1.0 0.3073410492
C  C66  1  0.24800000  0.51420000  0.81770000  1.0 0.3073410492
C  C67  1  0.48580000  0.75200000  0.31770000  1.0 0.3073410492
C  C68  1  0.75200000  0.48580000  0.18230000  1.0 0.3073410492
C  C69  1  0.51130000  0.26190000  0.60550000  1.0 0.0080754623
C  C70  1  0.26190000  0.51130000  0.89450000  1.0 0.0046478005
C  C71  1  0.48870000  0.73810000  0.39450000  1.0 0.0080754623
C  C72  1  0.73810000  0.48870000  0.10550000  1.0 0.0080754623
C  C73  1  0.47330000  0.35550000  0.54860000  1.0 -0.1196569249
C  C74  1  0.35550000  0.47330000  0.95140000  1.0 -0.1196569249
C  C75  1  0.52670000  0.64450000  0.45140000  1.0 -0.1196569249
C  C76  1  0.64450000  0.52670000  0.04860000  1.0 -0.1196569249
C  C77  1  0.46980000  0.36700000  0.47610000  1.0 -0.0731057216
C  C78  1  0.36700000  0.46980000  0.02390000  1.0 -0.0731057216
C  C79  1  0.53020000  0.63300000  0.52390000  1.0 -0.0731057216
C  C80  1  0.63300000  0.53020000  0.97610000  1.0 -0.0731057216
C  C81  1  0.50230000  0.29070000  0.45680000  1.0 -0.1297456093
C  C82  1  0.29070000  0.50230000  0.04320000  1.0 -0.1297456093
C  C83  1  0.49770000  0.70930000  0.54320000  1.0 -0.1297456093
C  C84  1  0.70930000  0.49770000  0.95680000  1.0 -0.1297456093
C  C85  1  0.54210000  0.19750000  0.51460000  1.0 0.1223638612
C  C86  1  0.19750000  0.54210000  0.98540000  1.0 0.1223638612
C  C87  1  0.45790000  0.80250000  0.48540000  1.0 0.1223638612
C  C88  1  0.80250000  0.45790000  0.01460000  1.0 0.1223638612
C  C89  1  0.54570000  0.18530000  0.58810000  1.0 -0.1591817077
C  C90  1  0.18530000  0.54570000  0.91190000  1.0 -0.1591817077
C  C91  1  0.45430000  0.81470000  0.41190000  1.0 -0.1591817077
C  C92  1  0.81470000  0.45430000  0.08810000  1.0 -0.1591817077
C  C93  1  0.57520000  0.11340000  0.49890000  1.0 -0.0916332554
C  C94  1  0.11340000  0.57520000  0.00110000  1.0 -0.0916332554
C  C95  1  0.42480000  0.88660000  0.50110000  1.0 -0.0916332554
C  C96  1  0.88660000  0.42480000  0.99890000  1.0 -0.0916332554
C  C97  1  0.60360000  0.04480000  0.48880000  1.0 -0.0916332554
C  C98  1  0.04480000  0.60360000  0.01120000  1.0 -0.0916332554
C  C99  1  0.39640000  0.95520000  0.51120000  1.0 -0.0916332554
C  C100  1  0.95520000  0.39640000  0.98880000  1.0 -0.0916332554
C  C101  1  0.64070000  0.95610000  0.47760000  1.0 0.1404400903
C  C102  1  0.95610000  0.64070000  0.02240000  1.0 0.1404400903
C  C103  1  0.35930000  0.04390000  0.52240000  1.0 0.1404400903
C  C104  1  0.04390000  0.35930000  0.97760000  1.0 0.1404400903
C  C105  1  0.67860000  0.86540000  0.54070000  1.0 -0.1470546039
C  C106  1  0.86540000  0.67860000  0.95930000  1.0 -0.1470546039
C  C107  1  0.32140000  0.13460000  0.45930000  1.0 -0.1470546039
C  C108  1  0.13460000  0.32140000  0.04070000  1.0 -0.1470546039
C  C109  1  0.71540000  0.78160000  0.53180000  1.0 -0.1148194571
C  C110  1  0.78160000  0.71540000  0.96820000  1.0 -0.1148194571
C  C111  1  0.28460000  0.21840000  0.46820000  1.0 -0.1196569249
C  C112  1  0.21840000  0.28460000  0.03180000  1.0 -0.1196569249
C  C113  1  0.71190000  0.78410000  0.46080000  1.0 0.0387368535
C  C114  1  0.78410000  0.71190000  0.03920000  1.0 0.0387368535
C  C115  1  0.28810000  0.21590000  0.53920000  1.0 0.0387368535
C  C116  1  0.21590000  0.28810000  0.96080000  1.0 0.0387368535
C  C117  1  0.74290000  0.69510000  0.45080000  1.0 0.2818010661
C  C118  1  0.69510000  0.74290000  0.04920000  1.0 0.2818010661
C  C119  1  0.25710000  0.30490000  0.54920000  1.0 0.2818010661
C  C120  1  0.30490000  0.25710000  0.95080000  1.0 0.2818010661
C  C121  1  0.67650000  0.87030000  0.39840000  1.0 -0.101185265
C  C122  1  0.87030000  0.67650000  0.10160000  1.0 -0.101185265
C  C123  1  0.32350000  0.12970000  0.60160000  1.0 -0.101185265
C  C124  1  0.12970000  0.32350000  0.89840000  1.0 -0.101185265
C  C125  1  0.64010000  0.95710000  0.40690000  1.0 -0.1591817077
C  C126  1  0.95710000  0.64010000  0.09310000  1.0 -0.1591817077
C  C127  1  0.35990000  0.04290000  0.59310000  1.0 -0.1591817077
C  C128  1  0.04290000  0.35990000  0.90690000  1.0 -0.1591817077
N  N1  1  0.46330000  0.30010000  0.70510000  1.0 -0.2314359631
N  N2  1  0.30010000  0.46330000  0.79490000  1.0 -0.2314359631
N  N3  1  0.53670000  0.69990000  0.29490000  1.0 -0.2314359631
N  N4  1  0.69990000  0.53670000  0.20510000  1.0 -0.2314359631
N  N5  1  0.49830000  0.25030000  0.78620000  1.0 -0.2314359631
N  N6  1  0.25030000  0.49830000  0.71380000  1.0 -0.2314359631
N  N7  1  0.50170000  0.74970000  0.21380000  1.0 -0.2314359631
N  N8  1  0.74970000  0.50170000  0.28620000  1.0 -0.2314359631
N  N9  1  0.42790000  0.69050000  0.03960000  1.0 -0.3536720176
N  N10  1  0.69050000  0.42790000  0.46040000  1.0 -0.3536720176
N  N11  1  0.57210000  0.30950000  0.96040000  1.0 -0.3536720176
N  N12  1  0.30950000  0.57210000  0.53960000  1.0 -0.3536720176
N  N13  1  0.76710000  0.62570000  0.44380000  1.0 -0.3567367245
N  N14  1  0.62570000  0.76710000  0.05620000  1.0 -0.3567367245
N  N15  1  0.23290000  0.37430000  0.55620000  1.0 -0.3567367245
N  N16  1  0.37430000  0.23290000  0.94380000  1.0 -0.3567367245
Cl  Cl1  1  0.77580000  0.77580000  0.25000000  1.0 1.2080972295
Cl  Cl2  1  0.22420000  0.22420000  0.75000000  1.0 1.2080972295
Cl  Cl3  1  0.52580000  0.52580000  0.75000000  1.0 1.0878614287
Cl  Cl4  1  0.47420000  0.47420000  0.25000000  1.0 1.0829404693
O  O1  1  0.58080000  0.16640000  0.74080000  1.0 -0.1846745361
O  O2  1  0.16640000  0.58080000  0.75920000  1.0 -0.1846745361
O  O3  1  0.41920000  0.83360000  0.25920000  1.0 -0.1846745361
O  O4  1  0.83360000  0.41920000  0.24080000  1.0 -0.1846745361
O  O5  1  0.79290000  0.82390000  0.18820000  1.0 -0.4341677029
O  O6  1  0.82390000  0.79290000  0.31180000  1.0 -0.4341677029
O  O7  1  0.80450000  0.68150000  0.25860000  1.0 -0.462787782
O  O8  1  0.68150000  0.80450000  0.24140000  1.0 -0.462787782
O  O9  1  0.20710000  0.17610000  0.81180000  1.0 -0.4394340415
O  O10  1  0.17610000  0.20710000  0.68820000  1.0 -0.4394340415
O  O11  1  0.19550000  0.31850000  0.74140000  1.0 -0.462787782
O  O12  1  0.31850000  0.19550000  0.75860000  1.0 -0.462787782
O  O13  1  0.52110000  0.61810000  0.74100000  1.0 -0.3394613986
O  O14  1  0.61810000  0.52110000  0.75900000  1.0 -0.3394613986
O  O15  1  0.47270000  0.52150000  0.68550000  1.0 -0.4394340415
O  O16  1  0.52150000  0.47270000  0.81450000  1.0 -0.4394340415
O  O17  1  0.47890000  0.38190000  0.25900000  1.0 -0.3394613986
O  O18  1  0.38190000  0.47890000  0.24100000  1.0 -0.3394613986
O  O19  1  0.52730000  0.47850000  0.31450000  1.0 -0.4456771512
O  O20  1  0.47850000  0.52730000  0.18550000  1.0 -0.4456771512
