# DDEC6 charges by PACMAN v1.1 (https://github.com/mtap-research/PACMAN-charge/)
data_WELTUD_ion_pacman
_symmetry_space_group_name_H-M   'P 1'
_cell_length_a   12.25430000
_cell_length_b   12.25430000
_cell_length_c   28.95400000
_cell_angle_alpha   83.12400000
_cell_angle_beta   96.87600000
_cell_angle_gamma   121.26400000
_symmetry_Int_Tables_number   1
_chemical_formula_structural   Cu6H30C28N42Cl7O2
_chemical_formula_sum   'Cu12 H60 C56 N84 Cl14 O4'
_cell_volume   3681.33514957
_cell_formula_units_Z   2
loop_
 _symmetry_equiv_pos_site_id
 _symmetry_equiv_pos_as_xyz
  1  'x, y, z'
loop_
 _atom_site_type_symbol
 _atom_site_label
 _atom_site_symmetry_multiplicity
 _atom_site_fract_x
 _atom_site_fract_y
 _atom_site_fract_z
 _atom_site_occupancy
 _atom_site_charge
Cu  Cu1  1  0.99868000  0.02048000  0.04398000  1.0 0.6995118373
Cu  Cu2  1  0.97952000  0.00132000  0.54398000  1.0 0.6995118373
Cu  Cu3  1  0.66913000  0.86055000  0.03215000  1.0 0.6891396754
Cu  Cu4  1  0.13945000  0.33087000  0.53215000  1.0 0.6891396754
Cu  Cu5  1  0.83970000  0.69212000  0.04738000  1.0 0.6372612629
Cu  Cu6  1  0.30788000  0.16030000  0.54738000  1.0 0.6372612629
Cu  Cu7  1  0.07377000  0.79601000  0.36781000  1.0 0.6372612629
Cu  Cu8  1  0.20399000  0.92623000  0.86781000  1.0 0.6329202765
Cu  Cu9  1  0.74649000  0.63105000  0.37636000  1.0 0.6995118373
Cu  Cu10  1  0.36895000  0.25351000  0.87636000  1.0 0.6995118373
Cu  Cu11  1  0.04229000  0.09299000  0.87968000  1.0 0.6891396754
Cu  Cu12  1  0.90701000  0.95771000  0.37968000  1.0 0.6891396754
H  H1  1  0.83450000  0.87870000  0.99310000  1.0 0.3638604992
H  H2  1  0.12130000  0.16550000  0.49310000  1.0 0.3638604992
H  H3  1  0.90810000  0.78450000  0.42400000  1.0 0.3655220383
H  H4  1  0.21550000  0.09190000  0.92400000  1.0 0.3655220383
H  H5  1  0.28810000  0.05150000  0.04390000  1.0 0.1296447089
H  H6  1  0.94850000  0.71190000  0.54390000  1.0 0.1296447089
H  H7  1  0.09130000  0.67190000  0.05260000  1.0 0.1221529573
H  H8  1  0.32810000  0.90870000  0.55260000  1.0 0.1221529573
H  H9  1  0.35880000  0.84320000  0.12870000  1.0 0.1296447089
H  H10  1  0.15680000  0.64120000  0.62870000  1.0 0.1296447089
H  H11  1  0.40530000  0.86230000  0.99460000  1.0 0.1296447089
H  H12  1  0.13770000  0.59470000  0.49460000  1.0 0.1296447089
H  H13  1  0.03100000  0.28980000  0.06830000  1.0 0.1221529573
H  H14  1  0.71020000  0.96900000  0.56830000  1.0 0.1221529573
H  H15  1  0.65120000  0.09120000  0.07430000  1.0 0.1221529573
H  H16  1  0.90880000  0.34880000  0.57430000  1.0 0.1221529573
H  H17  1  0.85640000  0.33000000  0.15770000  1.0 0.1296447089
H  H18  1  0.67000000  0.14360000  0.65770000  1.0 0.1296447089
H  H19  1  0.83040000  0.42120000  0.02430000  1.0 0.1296447089
H  H20  1  0.57880000  0.16960000  0.52430000  1.0 0.1296447089
H  H21  1  0.40430000  0.59850000  0.06590000  1.0 0.1221529573
H  H22  1  0.40150000  0.59570000  0.56590000  1.0 0.1221529573
H  H23  1  0.58650000  0.41150000  0.06520000  1.0 0.1221529573
H  H24  1  0.58850000  0.41350000  0.56520000  1.0 0.1221529573
H  H25  1  0.34580000  0.32240000  0.14860000  1.0 0.1296447089
H  H26  1  0.67760000  0.65420000  0.64860000  1.0 0.1296447089
H  H27  1  0.24920000  0.28580000  0.01180000  1.0 0.1296447089
H  H28  1  0.71420000  0.75080000  0.51180000  1.0 0.1296447089
H  H29  1  0.10000000  0.54540000  0.36450000  1.0 0.1296447089
H  H30  1  0.45460000  0.90000000  0.86450000  1.0 0.1296447089
H  H31  1  0.71810000  0.34910000  0.36680000  1.0 0.1296447089
H  H32  1  0.65090000  0.28190000  0.86680000  1.0 0.1296447089
H  H33  1  0.89920000  0.30920000  0.28050000  1.0 0.1296447089
H  H34  1  0.69080000  0.10080000  0.78050000  1.0 0.1296447089
H  H35  1  0.90730000  0.20050000  0.41600000  1.0 0.1296447089
H  H36  1  0.79950000  0.09270000  0.91600000  1.0 0.1296447089
H  H37  1  0.33920000  0.05600000  0.34850000  1.0 0.1221529573
H  H38  1  0.94400000  0.66080000  0.84850000  1.0 0.1221529573
H  H39  1  0.15850000  0.23810000  0.36380000  1.0 0.1296447089
H  H40  1  0.76190000  0.84150000  0.86380000  1.0 0.1296447089
H  H41  1  0.39610000  0.32950000  0.27400000  1.0 0.1296447089
H  H42  1  0.67050000  0.60390000  0.77400000  1.0 0.1296447089
H  H43  1  0.50010000  0.35150000  0.40950000  1.0 0.1296447089
H  H44  1  0.64850000  0.49990000  0.90950000  1.0 0.1296447089
H  H45  1  0.66170000  0.98590000  0.33670000  1.0 0.1221529573
H  H46  1  0.01410000  0.33830000  0.83670000  1.0 0.1221529573
H  H47  1  0.46450000  0.60750000  0.34870000  1.0 0.1221529573
H  H48  1  0.39250000  0.53550000  0.84870000  1.0 0.1221529573
H  H49  1  0.39360000  0.81080000  0.25380000  1.0 0.1296447089
H  H50  1  0.18920000  0.60640000  0.75380000  1.0 0.1296447089
H  H51  1  0.34880000  0.79660000  0.38790000  1.0 0.1221529573
H  H52  1  0.20340000  0.65120000  0.88790000  1.0 0.1221529573
H  H53  1  0.99410000  0.99790000  0.17250000  1.0 0.1386159808
H  H54  1  0.00210000  0.00590000  0.67250000  1.0 0.1386159808
H  H55  1  0.81640000  0.62320000  0.16240000  1.0 0.1296447089
H  H56  1  0.37680000  0.18360000  0.66240000  1.0 0.1296447089
H  H57  1  0.09150000  0.85650000  0.25340000  1.0 0.1296447089
H  H58  1  0.14350000  0.90850000  0.75340000  1.0 0.1296447089
H  H59  1  0.71530000  0.68390000  0.24620000  1.0 0.1386159808
H  H60  1  0.31610000  0.28470000  0.74620000  1.0 0.1386159808
C  C1  1  0.21960000  0.96640000  0.04430000  1.0 0.0787964481
C  C2  1  0.03360000  0.78040000  0.54430000  1.0 0.0787964481
C  C3  1  0.11140000  0.75740000  0.04900000  1.0 0.0991392732
C  C4  1  0.24260000  0.88860000  0.54900000  1.0 0.0991392732
C  C5  1  0.39400000  0.84760000  0.10100000  1.0 0.0706962079
C  C6  1  0.15240000  0.60600000  0.60100000  1.0 0.0706962079
C  C7  1  0.41890000  0.85790000  0.02720000  1.0 0.1051430368
C  C8  1  0.14210000  0.58110000  0.52720000  1.0 0.1051430368
C  C9  1  0.94540000  0.22240000  0.06760000  1.0 0.0706962079
C  C10  1  0.77760000  0.05460000  0.56760000  1.0 0.0706962079
C  C11  1  0.73520000  0.11200000  0.07070000  1.0 0.0603507646
C  C12  1  0.88800000  0.26480000  0.57070000  1.0 0.0603507646
C  C13  1  0.85300000  0.37500000  0.12950000  1.0 0.0501183966
C  C14  1  0.62500000  0.14700000  0.62950000  1.0 0.0501183966
C  C15  1  0.83910000  0.42490000  0.05690000  1.0 0.0501183966
C  C16  1  0.57510000  0.16090000  0.55690000  1.0 0.0501183966
C  C17  1  0.46840000  0.57960000  0.06340000  1.0 0.0603507646
C  C18  1  0.42040000  0.53160000  0.56340000  1.0 0.0501183966
C  C19  1  0.56840000  0.47780000  0.06260000  1.0 0.0991392732
C  C20  1  0.52220000  0.43160000  0.56260000  1.0 0.0991392732
C  C21  1  0.30160000  0.29040000  0.12000000  1.0 0.0501183966
C  C22  1  0.70960000  0.69840000  0.62000000  1.0 0.0501183966
C  C23  1  0.24910000  0.26970000  0.04440000  1.0 0.0877153092
C  C24  1  0.73030000  0.75090000  0.54440000  1.0 0.0787964481
C  C25  1  0.01510000  0.52510000  0.36570000  1.0 0.0877153092
C  C26  1  0.47490000  0.98490000  0.86570000  1.0 0.0877153092
C  C27  1  0.80430000  0.41530000  0.36770000  1.0 0.0603507646
C  C28  1  0.58470000  0.19570000  0.86770000  1.0 0.0603507646
C  C29  1  0.90210000  0.26350000  0.30870000  1.0 0.0245868304
C  C30  1  0.73650000  0.09790000  0.80870000  1.0 0.0245868304
C  C31  1  0.90770000  0.20470000  0.38340000  1.0 0.0877153092
C  C32  1  0.79530000  0.09230000  0.88340000  1.0 0.0877153092
C  C33  1  0.27570000  0.07330000  0.35410000  1.0 0.0787964481
C  C34  1  0.92670000  0.72430000  0.85410000  1.0 0.0787964481
C  C35  1  0.17720000  0.17320000  0.36260000  1.0 0.0991392732
C  C36  1  0.82680000  0.82280000  0.86260000  1.0 0.0991392732
C  C37  1  0.44290000  0.35950000  0.30250000  1.0 0.038382395
C  C38  1  0.64050000  0.55710000  0.80250000  1.0 0.038382395
C  C39  1  0.49840000  0.37240000  0.37720000  1.0 0.0706962079
C  C40  1  0.62760000  0.50160000  0.87720000  1.0 0.0706962079
C  C41  1  0.63980000  0.90000000  0.34270000  1.0 0.0706962079
C  C42  1  0.10000000  0.36020000  0.84270000  1.0 0.0706962079
C  C43  1  0.53270000  0.69270000  0.34880000  1.0 0.0706962079
C  C44  1  0.30730000  0.46730000  0.84880000  1.0 0.0706962079
C  C45  1  0.36160000  0.80960000  0.28190000  1.0 0.038382395
C  C46  1  0.19040000  0.63840000  0.78190000  1.0 0.038382395
C  C47  1  0.33530000  0.80070000  0.35530000  1.0 0.0603507646
C  C48  1  0.19930000  0.66470000  0.85530000  1.0 0.0603507646
C  C49  1  0.95470000  0.91770000  0.15990000  1.0 0.0501183966
C  C50  1  0.08230000  0.04530000  0.65990000  1.0 0.0501183966
C  C51  1  0.85670000  0.71170000  0.15450000  1.0 0.0603507646
C  C52  1  0.28830000  0.14330000  0.65450000  1.0 0.0603507646
C  C53  1  0.00690000  0.81730000  0.26200000  1.0 0.0706962079
C  C54  1  0.18270000  0.99310000  0.76200000  1.0 0.0603507646
C  C55  1  0.80090000  0.72210000  0.25830000  1.0 0.0501183966
C  C56  1  0.27790000  0.19910000  0.75830000  1.0 0.0501183966
N  N1  1  0.09530000  0.92730000  0.03980000  1.0 -0.1711731332
N  N2  1  0.07270000  0.90470000  0.53980000  1.0 -0.1711731332
N  N3  1  0.03090000  0.79370000  0.04300000  1.0 -0.1500236975
N  N4  1  0.20630000  0.96910000  0.54300000  1.0 -0.1500236975
N  N5  1  0.22790000  0.85850000  0.04960000  1.0 0.0706962079
N  N6  1  0.14150000  0.77210000  0.54960000  1.0 0.0706962079
N  N7  1  0.49480000  0.84300000  0.09860000  1.0 -0.2096651531
N  N8  1  0.15700000  0.50520000  0.59860000  1.0 -0.2096651531
N  N9  1  0.51090000  0.84890000  0.05020000  1.0 -0.218283642
N  N10  1  0.15110000  0.48910000  0.55020000  1.0 -0.218283642
N  N11  1  0.34550000  0.85970000  0.05770000  1.0 0.0501183966
N  N12  1  0.14030000  0.65450000  0.55770000  1.0 0.0501183966
N  N13  1  0.90440000  0.10540000  0.05840000  1.0 -0.1711731332
N  N14  1  0.89460000  0.09560000  0.55840000  1.0 -0.1711731332
N  N15  1  0.77100000  0.03520000  0.05980000  1.0 -0.1711731332
N  N16  1  0.96480000  0.22900000  0.55980000  1.0 -0.1711731332
N  N17  1  0.84570000  0.23010000  0.07590000  1.0 0.0603507646
N  N18  1  0.76990000  0.15430000  0.57590000  1.0 0.0603507646
N  N19  1  0.84780000  0.51680000  0.07960000  1.0 -0.2002969645
N  N20  1  0.48320000  0.15220000  0.57960000  1.0 -0.2002969645
N  N21  1  0.85690000  0.48130000  0.12560000  1.0 -0.2096651531
N  N22  1  0.51870000  0.14310000  0.62560000  1.0 -0.2096651531
N  N23  1  0.84470000  0.33890000  0.08780000  1.0 0.0706962079
N  N24  1  0.66110000  0.15530000  0.58780000  1.0 0.0706962079
N  N25  1  0.58700000  0.66320000  0.05530000  1.0 -0.1791744306
N  N26  1  0.33680000  0.41300000  0.55530000  1.0 -0.1791744306
N  N27  1  0.65110000  0.59750000  0.05380000  1.0 -0.161574007
N  N28  1  0.40250000  0.34890000  0.55380000  1.0 -0.1711731332
N  N29  1  0.45270000  0.46130000  0.06760000  1.0 0.0787964481
N  N30  1  0.53870000  0.54730000  0.56760000  1.0 0.0787964481
N  N31  1  0.16180000  0.17000000  0.06670000  1.0 -0.2096651531
N  N32  1  0.83000000  0.83820000  0.56670000  1.0 -0.2096651531
N  N33  1  0.19390000  0.18550000  0.11500000  1.0 -0.218283642
N  N34  1  0.81450000  0.80610000  0.61500000  1.0 -0.218283642
N  N35  1  0.34200000  0.34860000  0.07640000  1.0 0.0603507646
N  N36  1  0.65140000  0.65800000  0.57640000  1.0 0.0603507646
N  N37  1  0.97980000  0.60360000  0.37050000  1.0 -0.161574007
N  N38  1  0.39640000  0.02020000  0.87050000  1.0 -0.161574007
N  N39  1  0.84770000  0.53590000  0.37420000  1.0 -0.1711731332
N  N40  1  0.46410000  0.15230000  0.87420000  1.0 -0.1711731332
N  N41  1  0.90670000  0.40370000  0.36240000  1.0 0.0706962079
N  N42  1  0.59630000  0.09330000  0.86240000  1.0 0.0706962079
N  N43  1  0.90410000  0.15670000  0.31310000  1.0 -0.1896035261
N  N44  1  0.84330000  0.09590000  0.81310000  1.0 -0.1896035261
N  N45  1  0.91080000  0.12380000  0.36010000  1.0 -0.2096651531
N  N46  1  0.87620000  0.08920000  0.86010000  1.0 -0.2096651531
N  N47  1  0.90510000  0.29670000  0.35350000  1.0 0.0877153092
N  N48  1  0.70330000  0.09490000  0.85350000  1.0 0.0877153092
N  N49  1  0.16230000  0.99050000  0.36210000  1.0 -0.1500236975
N  N50  1  0.00950000  0.83770000  0.86210000  1.0 -0.1500236975
N  N51  1  0.09830000  0.05310000  0.36810000  1.0 -0.1711731332
N  N52  1  0.94690000  0.90170000  0.86810000  1.0 -0.1711731332
N  N53  1  0.29270000  0.19150000  0.35460000  1.0 0.0603507646
N  N54  1  0.80850000  0.70730000  0.85460000  1.0 0.0603507646
N  N55  1  0.55850000  0.46610000  0.30700000  1.0 -0.2300799277
N  N56  1  0.53390000  0.44150000  0.80700000  1.0 -0.2300799277
N  N57  1  0.58580000  0.47400000  0.35430000  1.0 -0.2002969645
N  N58  1  0.52600000  0.41420000  0.85430000  1.0 -0.2002969645
N  N59  1  0.40480000  0.30340000  0.34430000  1.0 0.0787964481
N  N60  1  0.69660000  0.59520000  0.84430000  1.0 0.0787964481
N  N61  1  0.71870000  0.86110000  0.35670000  1.0 -0.161574007
N  N62  1  0.13890000  0.28130000  0.85670000  1.0 -0.161574007
N  N63  1  0.65330000  0.72930000  0.35890000  1.0 -0.161574007
N  N64  1  0.27070000  0.34670000  0.85890000  1.0 -0.161574007
N  N65  1  0.52290000  0.79930000  0.33830000  1.0 0.0787964481
N  N66  1  0.20070000  0.47710000  0.83830000  1.0 0.0787964481
N  N67  1  0.25860000  0.81720000  0.28550000  1.0 -0.2300799277
N  N68  1  0.18280000  0.74140000  0.78550000  1.0 -0.2300799277
N  N69  1  0.24230000  0.80750000  0.33320000  1.0 -0.2300799277
N  N70  1  0.19250000  0.75770000  0.83320000  1.0 -0.2300799277
N  N71  1  0.41270000  0.80010000  0.32500000  1.0 0.0603507646
N  N72  1  0.19990000  0.58730000  0.82500000  1.0 0.0603507646
N  N73  1  0.93790000  0.89810000  0.11470000  1.0 -0.1791744306
N  N74  1  0.10190000  0.06210000  0.61470000  1.0 -0.1791744306
N  N75  1  0.87490000  0.76730000  0.11290000  1.0 -0.1500236975
N  N76  1  0.23270000  0.12510000  0.61290000  1.0 -0.1500236975
N  N77  1  0.90660000  0.80500000  0.18440000  1.0 0.038382395
N  N78  1  0.19500000  0.09340000  0.68440000  1.0 0.038382395
N  N79  1  0.97130000  0.78530000  0.30520000  1.0 -0.161574007
N  N80  1  0.21470000  0.02870000  0.80520000  1.0 -0.161574007
N  N81  1  0.83880000  0.72280000  0.30220000  1.0 -0.161574007
N  N82  1  0.27720000  0.16120000  0.80220000  1.0 -0.161574007
N  N83  1  0.90570000  0.78590000  0.23270000  1.0 0.0298788772
N  N84  1  0.21410000  0.09430000  0.73270000  1.0 0.0298788772
Cl  Cl1  1  0.03203000  0.12677000  0.95956000  1.0 -0.5865431911
Cl  Cl2  1  0.87323000  0.96797000  0.45956000  1.0 -0.5865431911
Cl  Cl3  1  0.60340000  0.84720000  0.95201000  1.0 -0.6283687241
Cl  Cl4  1  0.15280000  0.39660000  0.45201000  1.0 -0.6283687241
Cl  Cl5  1  0.80690000  0.63670000  0.97210000  1.0 -0.5584326125
Cl  Cl6  1  0.36330000  0.19310000  0.47210000  1.0 -0.5584326125
Cl  Cl7  1  0.17171000  0.80129000  0.44026000  1.0 -0.5584326125
Cl  Cl8  1  0.19871000  0.82829000  0.94026000  1.0 -0.5584326125
Cl  Cl9  1  0.69940000  0.56080000  0.46135000  1.0 -0.6695696003
Cl  Cl10  1  0.43920000  0.30060000  0.96135000  1.0 -0.6695696003
Cl  Cl11  1  0.82650000  0.49230000  0.60150000  1.0 -0.6695696003
Cl  Cl12  1  0.50770000  0.17350000  0.10150000  1.0 -0.6695696003
Cl  Cl13  1  0.53400000  0.77340000  0.81700000  1.0 -0.7002925761
Cl  Cl14  1  0.22660000  0.46600000  0.31700000  1.0 -0.7002925761
O  O1  1  0.83220000  0.87340000  0.02250000  1.0 -0.7883024848
O  O2  1  0.12660000  0.16780000  0.52250000  1.0 -0.7883024848
O  O3  1  0.89920000  0.79220000  0.39440000  1.0 -0.7883024848
O  O4  1  0.20780000  0.10080000  0.89440000  1.0 -0.7883024848
