# DDEC6 charges by PACMAN v1.1 (https://github.com/mtap-research/PACMAN-charge/)
data_WEQBAY_FSR_pacman
_symmetry_space_group_name_H-M   'P 1'
_cell_length_a   9.30650000
_cell_length_b   14.89650000
_cell_length_c   9.80086000
_cell_angle_alpha   90.00000000
_cell_angle_beta   119.72300000
_cell_angle_gamma   90.00000000
_symmetry_Int_Tables_number   1
_chemical_formula_structural   ZnH5C9N4O3
_chemical_formula_sum   'Zn4 H20 C36 N16 O12'
_cell_volume   1179.96983085
_cell_formula_units_Z   4
loop_
 _symmetry_equiv_pos_site_id
 _symmetry_equiv_pos_as_xyz
  1  'x, y, z'
loop_
 _atom_site_type_symbol
 _atom_site_label
 _atom_site_symmetry_multiplicity
 _atom_site_fract_x
 _atom_site_fract_y
 _atom_site_fract_z
 _atom_site_occupancy
 _atom_site_charge
Zn  Zn1  1  0.86402000  0.86427000  0.26817000  1.0 0.6819066878
Zn  Zn2  1  0.13598000  0.36427000  0.23183000  1.0 0.6819066878
Zn  Zn3  1  0.13598000  0.13573000  0.73183000  1.0 0.6819066878
Zn  Zn4  1  0.86402000  0.63573000  0.76817000  1.0 0.6819066878
H  H1  1  0.05050000  0.99290000  0.51220000  1.0 0.1364261384
H  H2  1  0.47670000  0.72210000  0.58470000  1.0 0.1364261384
H  H3  1  0.52630000  0.93410000  0.96030000  1.0 0.1364261384
H  H4  1  0.97010000  0.73310000  0.08720000  1.0 0.1011199828
H  H5  1  0.02830000  0.93330000  0.59490000  1.0 0.1888997878
H  H6  1  0.94950000  0.49290000  0.98780000  1.0 0.1364261384
H  H7  1  0.52330000  0.22210000  0.91530000  1.0 0.1364261384
H  H8  1  0.47370000  0.43410000  0.53970000  1.0 0.1364261384
H  H9  1  0.02990000  0.23310000  0.41280000  1.0 0.1011199828
H  H10  1  0.97170000  0.43330000  0.90510000  1.0 0.1888997878
H  H11  1  0.94950000  0.00710000  0.48780000  1.0 0.1364261384
H  H12  1  0.52330000  0.27790000  0.41530000  1.0 0.1364261384
H  H13  1  0.47370000  0.06590000  0.03970000  1.0 0.1364261384
H  H14  1  0.02990000  0.26690000  0.91280000  1.0 0.1011199828
H  H15  1  0.97170000  0.06670000  0.40510000  1.0 0.1888997878
H  H16  1  0.05050000  0.50710000  0.01220000  1.0 0.1364261384
H  H17  1  0.47670000  0.77790000  0.08470000  1.0 0.1364261384
H  H18  1  0.52630000  0.56590000  0.46030000  1.0 0.1364261384
H  H19  1  0.97010000  0.76690000  0.58720000  1.0 0.1011199828
H  H20  1  0.02830000  0.56670000  0.09490000  1.0 0.1888997878
C  C1  1  0.24740000  0.95650000  0.69970000  1.0 0.4401694711
C  C2  1  0.37600000  0.88870000  0.73870000  1.0 -0.078965911
C  C3  1  0.35860000  0.82460000  0.62690000  1.0 -0.008236404
C  C4  1  0.20070000  0.81570000  0.47030000  1.0 0.4266951408
C  C5  1  0.48650000  0.76430000  0.65890000  1.0 -0.1861167525
C  C6  1  0.62980000  0.76930000  0.80600000  1.0 0.1522965159
C  C7  1  0.51630000  0.89230000  0.88560000  1.0 -0.1602962104
C  C8  1  0.64100000  0.83140000  0.91710000  1.0 0.1339860286
C  C9  1  0.86520000  0.75450000  0.01630000  1.0 0.1826556053
C  C10  1  0.75260000  0.45650000  0.80030000  1.0 0.4401694711
C  C11  1  0.62400000  0.38870000  0.76130000  1.0 -0.078965911
C  C12  1  0.64140000  0.32460000  0.87310000  1.0 -0.008236404
C  C13  1  0.79930000  0.31570000  0.02970000  1.0 0.4266951408
C  C14  1  0.51350000  0.26430000  0.84110000  1.0 -0.1848877792
C  C15  1  0.37020000  0.26930000  0.69400000  1.0 0.1522965159
C  C16  1  0.48370000  0.39230000  0.61440000  1.0 -0.1602962104
C  C17  1  0.35900000  0.33140000  0.58290000  1.0 0.1339860286
C  C18  1  0.13480000  0.25450000  0.48370000  1.0 0.1826556053
C  C19  1  0.75260000  0.04350000  0.30030000  1.0 0.4401694711
C  C20  1  0.62400000  0.11130000  0.26130000  1.0 -0.078965911
C  C21  1  0.64140000  0.17540000  0.37310000  1.0 -0.008236404
C  C22  1  0.79930000  0.18430000  0.52970000  1.0 0.4266951408
C  C23  1  0.51350000  0.23570000  0.34110000  1.0 -0.1861167525
C  C24  1  0.37020000  0.23070000  0.19400000  1.0 0.1522965159
C  C25  1  0.48370000  0.10770000  0.11440000  1.0 -0.1602962104
C  C26  1  0.35900000  0.16860000  0.08290000  1.0 0.1339860286
C  C27  1  0.13480000  0.24550000  0.98370000  1.0 0.1826556053
C  C28  1  0.24740000  0.54350000  0.19970000  1.0 0.4401694711
C  C29  1  0.37600000  0.61130000  0.23870000  1.0 -0.078965911
C  C30  1  0.35860000  0.67540000  0.12690000  1.0 -0.008236404
C  C31  1  0.20070000  0.68430000  0.97030000  1.0 0.4266951408
C  C32  1  0.48650000  0.73570000  0.15890000  1.0 -0.1861167525
C  C33  1  0.62980000  0.73070000  0.30600000  1.0 0.1522965159
C  C34  1  0.51630000  0.60770000  0.38560000  1.0 -0.1602962104
C  C35  1  0.64100000  0.66860000  0.41710000  1.0 0.1339860286
C  C36  1  0.86520000  0.74550000  0.51630000  1.0 0.1826556053
N  N1  1  0.09530000  0.88370000  0.43110000  1.0 -0.4635242198
N  N2  1  0.12200000  0.95020000  0.54420000  1.0 -0.1055449743
N  N3  1  0.77690000  0.72140000  0.86990000  1.0 -0.3682492349
N  N4  1  0.79340000  0.81980000  0.05360000  1.0 -0.3392655376
N  N5  1  0.90470000  0.38370000  0.06890000  1.0 -0.4635242198
N  N6  1  0.87800000  0.45020000  0.95580000  1.0 -0.1055449743
N  N7  1  0.22310000  0.22140000  0.63010000  1.0 -0.3682492349
N  N8  1  0.20660000  0.31980000  0.44640000  1.0 -0.3392655376
N  N9  1  0.90470000  0.11630000  0.56890000  1.0 -0.4635242198
N  N10  1  0.87800000  0.04980000  0.45580000  1.0 -0.1055449743
N  N11  1  0.22310000  0.27860000  0.13010000  1.0 -0.3682492349
N  N12  1  0.20660000  0.18020000  0.94640000  1.0 -0.3392655376
N  N13  1  0.09530000  0.61630000  0.93110000  1.0 -0.4635242198
N  N14  1  0.12200000  0.54980000  0.04420000  1.0 -0.1044763599
N  N15  1  0.77690000  0.77860000  0.36990000  1.0 -0.3682492349
N  N16  1  0.79340000  0.68020000  0.55360000  1.0 -0.3392655376
O  O1  1  0.16920000  0.74900000  0.39000000  1.0 -0.4545350794
O  O2  1  0.26890000  0.02600000  0.76650000  1.0 -0.3854487587
O  O3  1  0.10100000  0.93250000  0.68800000  1.0 -0.1673989494
O  O4  1  0.83080000  0.24900000  0.11000000  1.0 -0.4545350794
O  O5  1  0.73110000  0.52600000  0.73350000  1.0 -0.3854487587
O  O6  1  0.89900000  0.43250000  0.81200000  1.0 -0.1673989494
O  O7  1  0.83080000  0.25100000  0.61000000  1.0 -0.4545350794
O  O8  1  0.73110000  0.97400000  0.23350000  1.0 -0.3854487587
O  O9  1  0.89900000  0.06750000  0.31200000  1.0 -0.1673989494
O  O10  1  0.16920000  0.75100000  0.89000000  1.0 -0.4545350794
O  O11  1  0.26890000  0.47400000  0.26650000  1.0 -0.3854487587
O  O12  1  0.10100000  0.56750000  0.18800000  1.0 -0.1673989494
