# DDEC6 charges by PACMAN v1.1 (https://github.com/mtap-research/PACMAN-charge/)
data_WERDOP_FSR_pacman
_symmetry_space_group_name_H-M   'P 1'
_cell_length_a   16.79070000
_cell_length_b   16.79070000
_cell_length_c   8.48560000
_cell_angle_alpha   81.41100000
_cell_angle_beta   98.58900000
_cell_angle_gamma   101.63100000
_symmetry_Int_Tables_number   1
_chemical_formula_structural   Zn2H40C49(NO)8
_chemical_formula_sum   'Zn4 H80 C98 N16 O16'
_cell_volume   2299.29611784
_cell_formula_units_Z   2
loop_
 _symmetry_equiv_pos_site_id
 _symmetry_equiv_pos_as_xyz
  1  'x, y, z'
loop_
 _atom_site_type_symbol
 _atom_site_label
 _atom_site_symmetry_multiplicity
 _atom_site_fract_x
 _atom_site_fract_y
 _atom_site_fract_z
 _atom_site_occupancy
 _atom_site_charge
Zn  Zn1  1  0.15003000  0.84997000  0.52903000  1.0 0.7750022397
Zn  Zn2  1  0.23292000  0.76708000  0.82928000  1.0 0.8031163201
Zn  Zn3  1  0.84997000  0.15003000  0.47097000  1.0 0.7750022397
Zn  Zn4  1  0.76708000  0.23292000  0.17072000  1.0 0.8031163201
H  H1  1  0.20100000  0.52940000  0.65780000  1.0 0.1260818726
H  H2  1  0.06670000  0.39350000  0.32540000  1.0 0.1100605884
H  H3  1  0.00520000  0.50580000  0.21250000  1.0 0.1100605884
H  H4  1  0.05100000  0.62860000  0.30860000  1.0 0.1100605884
H  H5  1  0.07810000  0.29130000  0.53860000  1.0 0.1100605884
H  H6  1  0.33710000  0.33070000  0.77530000  1.0 0.1100605884
H  H7  1  0.19370000  0.09190000  0.69250000  1.0 0.1205216293
H  H8  1  0.34820000  0.98960000  0.02960000  1.0 0.1100605884
H  H9  1  0.40780000  0.11580000  0.10390000  1.0 0.1100605884
H  H10  1  0.35800000  0.23040000  0.97580000  1.0 0.1100605884
H  H11  1  0.07430000  0.81670000  0.16970000  1.0 0.1372089074
H  H12  1  0.00390000  0.80470000  0.27870000  1.0 0.1260818726
H  H13  1  0.93080000  0.87560000  0.09490000  1.0 0.1260818726
H  H14  1  0.99350000  0.87310000  0.97630000  1.0 0.1205216293
H  H15  1  0.20300000  0.60400000  0.03940000  1.0 0.1205216293
H  H16  1  0.27790000  0.59850000  0.95420000  1.0 0.1205216293
H  H17  1  0.31950000  0.52370000  0.17470000  1.0 0.1100605884
H  H18  1  0.25760000  0.54880000  0.27230000  1.0 0.1100605884
H  H19  1  0.28420000  0.79000000  0.19870000  1.0 0.1100605884
H  H20  1  0.27710000  0.64910000  0.39910000  1.0 0.103617147
H  H21  1  0.52940000  0.20100000  0.34220000  1.0 0.1260818726
H  H22  1  0.39350000  0.06670000  0.67460000  1.0 0.1100605884
H  H23  1  0.50580000  0.00520000  0.78750000  1.0 0.1100605884
H  H24  1  0.62860000  0.05100000  0.69140000  1.0 0.1100605884
H  H25  1  0.29130000  0.07810000  0.46140000  1.0 0.1100605884
H  H26  1  0.33070000  0.33710000  0.22470000  1.0 0.1100605884
H  H27  1  0.09190000  0.19370000  0.30750000  1.0 0.1205216293
H  H28  1  0.98960000  0.34820000  0.97040000  1.0 0.1100605884
H  H29  1  0.11580000  0.40780000  0.89610000  1.0 0.1100605884
H  H30  1  0.23040000  0.35800000  0.02420000  1.0 0.1100605884
H  H31  1  0.81670000  0.07430000  0.83030000  1.0 0.1372089074
H  H32  1  0.80470000  0.00390000  0.72130000  1.0 0.1260818726
H  H33  1  0.87560000  0.93080000  0.90510000  1.0 0.1260818726
H  H34  1  0.87310000  0.99350000  0.02370000  1.0 0.1205216293
H  H35  1  0.60400000  0.20300000  0.96060000  1.0 0.1205216293
H  H36  1  0.59850000  0.27790000  0.04580000  1.0 0.1205216293
H  H37  1  0.52370000  0.31950000  0.82530000  1.0 0.1100605884
H  H38  1  0.54880000  0.25760000  0.72770000  1.0 0.1100605884
H  H39  1  0.79000000  0.28420000  0.80130000  1.0 0.1100605884
H  H40  1  0.64910000  0.27710000  0.60090000  1.0 0.103617147
H  H41  1  0.79900000  0.47060000  0.34220000  1.0 0.1260818726
H  H42  1  0.93330000  0.60650000  0.67460000  1.0 0.1100605884
H  H43  1  0.99480000  0.49420000  0.78750000  1.0 0.1100605884
H  H44  1  0.94900000  0.37140000  0.69140000  1.0 0.1100605884
H  H45  1  0.92190000  0.70870000  0.46140000  1.0 0.1100605884
H  H46  1  0.66290000  0.66930000  0.22470000  1.0 0.1100605884
H  H47  1  0.80630000  0.90810000  0.30750000  1.0 0.1205216293
H  H48  1  0.65180000  0.01040000  0.97040000  1.0 0.1100605884
H  H49  1  0.59220000  0.88420000  0.89610000  1.0 0.1100605884
H  H50  1  0.64200000  0.76960000  0.02420000  1.0 0.1100605884
H  H51  1  0.92570000  0.18330000  0.83030000  1.0 0.1372089074
H  H52  1  0.99610000  0.19530000  0.72130000  1.0 0.1260818726
H  H53  1  0.06920000  0.12440000  0.90510000  1.0 0.1260818726
H  H54  1  0.00650000  0.12690000  0.02370000  1.0 0.1205216293
H  H55  1  0.79700000  0.39600000  0.96060000  1.0 0.1205216293
H  H56  1  0.72210000  0.40150000  0.04580000  1.0 0.1205216293
H  H57  1  0.68050000  0.47630000  0.82530000  1.0 0.1100605884
H  H58  1  0.74240000  0.45120000  0.72770000  1.0 0.1100605884
H  H59  1  0.71580000  0.21000000  0.80130000  1.0 0.1100605884
H  H60  1  0.72290000  0.35090000  0.60090000  1.0 0.103617147
H  H61  1  0.47060000  0.79900000  0.65780000  1.0 0.1260818726
H  H62  1  0.60650000  0.93330000  0.32540000  1.0 0.1100605884
H  H63  1  0.49420000  0.99480000  0.21250000  1.0 0.1100605884
H  H64  1  0.37140000  0.94900000  0.30860000  1.0 0.1100605884
H  H65  1  0.70870000  0.92190000  0.53860000  1.0 0.1100605884
H  H66  1  0.66930000  0.66290000  0.77530000  1.0 0.1100605884
H  H67  1  0.90810000  0.80630000  0.69250000  1.0 0.1205216293
H  H68  1  0.01040000  0.65180000  0.02960000  1.0 0.1100605884
H  H69  1  0.88420000  0.59220000  0.10390000  1.0 0.1100605884
H  H70  1  0.76960000  0.64200000  0.97580000  1.0 0.1100605884
H  H71  1  0.18330000  0.92570000  0.16970000  1.0 0.1372089074
H  H72  1  0.19530000  0.99610000  0.27870000  1.0 0.1260818726
H  H73  1  0.12440000  0.06920000  0.09490000  1.0 0.1260818726
H  H74  1  0.12690000  0.00650000  0.97630000  1.0 0.1205216293
H  H75  1  0.39600000  0.79700000  0.03940000  1.0 0.1205216293
H  H76  1  0.40150000  0.72210000  0.95420000  1.0 0.1205216293
H  H77  1  0.47630000  0.68050000  0.17470000  1.0 0.1100605884
H  H78  1  0.45120000  0.74240000  0.27230000  1.0 0.1100605884
H  H79  1  0.21000000  0.71580000  0.19870000  1.0 0.1100605884
H  H80  1  0.35090000  0.72290000  0.39910000  1.0 0.103617147
C  C1  1  0.15360000  0.67240000  0.56300000  1.0 0.5553915486
C  C2  1  0.12940000  0.59120000  0.49800000  1.0 -0.0282720397
C  C3  1  0.16240000  0.52440000  0.56720000  1.0 -0.1515787586
C  C4  1  0.14060000  0.44980000  0.50750000  1.0 0.0498156151
C  C5  1  0.08170000  0.44270000  0.36930000  1.0 -0.1595737581
C  C6  1  0.04610000  0.51050000  0.29940000  1.0 -0.0879000142
C  C7  1  0.07190000  0.58290000  0.35990000  1.0 -0.1286721914
C  C8  1  0.17350000  0.37530000  0.58540000  1.0 0.1205216293
C  C9  1  0.13140000  0.29900000  0.59060000  1.0 -0.0242646885
C  C10  1  0.28300000  0.32340000  0.72750000  1.0 -0.0410538069
C  C11  1  0.23860000  0.24680000  0.73380000  1.0 0.1372089074
C  C12  1  0.27180000  0.17360000  0.82150000  1.0 0.0498156151
C  C13  1  0.23688000  0.09648000  0.77500000  1.0 -0.1595737581
C  C14  1  0.26600000  0.02680000  0.85090000  1.0 -0.0282720397
C  C15  1  0.32920000  0.03600000  0.97560000  1.0 -0.1241880204
C  C16  1  0.36450000  0.11090000  0.02160000  1.0 -0.1067797705
C  C17  1  0.33470000  0.17930000  0.94390000  1.0 -0.1515787586
C  C18  1  0.23080000  0.94440000  0.79420000  1.0 0.5666022585
C  C19  1  0.03990000  0.84510000  0.21490000  1.0 -0.1595737581
C  C20  1  0.98800000  0.89000000  0.07800000  1.0 -0.1842949404
C  C21  1  0.02330000  0.94170000  0.36470000  1.0 0.1100605884
C  C22  1  0.26230000  0.61710000  0.04610000  1.0 -0.1353837763
C  C23  1  0.29870000  0.56950000  0.20020000  1.0 -0.1241880204
C  C24  1  0.67240000  0.15360000  0.43700000  1.0 0.5553915486
C  C25  1  0.59120000  0.12940000  0.50200000  1.0 -0.0282720397
C  C26  1  0.52440000  0.16240000  0.43280000  1.0 -0.1515787586
C  C27  1  0.44980000  0.14060000  0.49250000  1.0 0.0498156151
C  C28  1  0.44270000  0.08170000  0.63070000  1.0 -0.1595737581
C  C29  1  0.51050000  0.04610000  0.70060000  1.0 -0.0879000142
C  C30  1  0.58290000  0.07190000  0.64010000  1.0 -0.1286721914
C  C31  1  0.37530000  0.17350000  0.41460000  1.0 0.1205216293
C  C32  1  0.29900000  0.13140000  0.40940000  1.0 -0.0242646885
C  C33  1  0.32340000  0.28300000  0.27250000  1.0 -0.0410538069
C  C34  1  0.24680000  0.23860000  0.26620000  1.0 0.1372089074
C  C35  1  0.17360000  0.27180000  0.17850000  1.0 0.0498156151
C  C36  1  0.09648000  0.23688000  0.22500000  1.0 -0.1595737581
C  C37  1  0.02680000  0.26600000  0.14910000  1.0 -0.0282720397
C  C38  1  0.03600000  0.32920000  0.02440000  1.0 -0.1241880204
C  C39  1  0.11090000  0.36450000  0.97840000  1.0 -0.1067797705
C  C40  1  0.17930000  0.33470000  0.05610000  1.0 -0.1595737581
C  C41  1  0.94440000  0.23080000  0.20580000  1.0 0.5666022585
C  C42  1  0.84510000  0.03990000  0.78510000  1.0 -0.1595737581
C  C43  1  0.89000000  0.98800000  0.92200000  1.0 -0.1842949404
C  C44  1  0.94170000  0.02330000  0.63530000  1.0 0.1100605884
C  C45  1  0.61710000  0.26230000  0.95390000  1.0 -0.1353837763
C  C46  1  0.56950000  0.29870000  0.79980000  1.0 -0.1241880204
C  C47  1  0.84640000  0.32760000  0.43700000  1.0 0.5553915486
C  C48  1  0.87060000  0.40880000  0.50200000  1.0 -0.0282720397
C  C49  1  0.83760000  0.47560000  0.43280000  1.0 -0.1515787586
C  C50  1  0.85940000  0.55020000  0.49250000  1.0 0.0498156151
C  C51  1  0.91830000  0.55730000  0.63070000  1.0 -0.1595737581
C  C52  1  0.95390000  0.48950000  0.70060000  1.0 -0.0879000142
C  C53  1  0.92810000  0.41710000  0.64010000  1.0 -0.1286721914
C  C54  1  0.82650000  0.62470000  0.41460000  1.0 0.1205216293
C  C55  1  0.86860000  0.70100000  0.40940000  1.0 -0.0242646885
C  C56  1  0.71700000  0.67660000  0.27250000  1.0 -0.0410538069
C  C57  1  0.76140000  0.75320000  0.26620000  1.0 0.1372089074
C  C58  1  0.72820000  0.82640000  0.17850000  1.0 0.0498156151
C  C59  1  0.76312000  0.90352000  0.22500000  1.0 -0.1595737581
C  C60  1  0.73400000  0.97320000  0.14910000  1.0 -0.0282720397
C  C61  1  0.67080000  0.96400000  0.02440000  1.0 -0.1241880204
C  C62  1  0.63550000  0.88910000  0.97840000  1.0 -0.1067797705
C  C63  1  0.66530000  0.82070000  0.05610000  1.0 -0.1595737581
C  C64  1  0.76920000  0.05560000  0.20580000  1.0 0.5666022585
C  C65  1  0.96010000  0.15490000  0.78510000  1.0 -0.1595737581
C  C66  1  0.01200000  0.11000000  0.92200000  1.0 -0.1842949404
C  C67  1  0.97670000  0.05830000  0.63530000  1.0 0.1100605884
C  C68  1  0.73770000  0.38290000  0.95390000  1.0 -0.1353837763
C  C69  1  0.70130000  0.43050000  0.79980000  1.0 -0.1241880204
C  C70  1  0.32760000  0.84640000  0.56300000  1.0 0.5553915486
C  C71  1  0.40880000  0.87060000  0.49800000  1.0 -0.0282720397
C  C72  1  0.47560000  0.83760000  0.56720000  1.0 -0.1515787586
C  C73  1  0.55020000  0.85940000  0.50750000  1.0 0.0498156151
C  C74  1  0.55730000  0.91830000  0.36930000  1.0 -0.1595737581
C  C75  1  0.48950000  0.95390000  0.29940000  1.0 -0.0879000142
C  C76  1  0.41710000  0.92810000  0.35990000  1.0 -0.1286721914
C  C77  1  0.62470000  0.82650000  0.58540000  1.0 0.1205216293
C  C78  1  0.70100000  0.86860000  0.59060000  1.0 -0.0242646885
C  C79  1  0.67660000  0.71700000  0.72750000  1.0 -0.0410538069
C  C80  1  0.75320000  0.76140000  0.73380000  1.0 0.1372089074
C  C81  1  0.82640000  0.72820000  0.82150000  1.0 0.0498156151
C  C82  1  0.90352000  0.76312000  0.77500000  1.0 -0.1595737581
C  C83  1  0.97320000  0.73400000  0.85090000  1.0 -0.0282720397
C  C84  1  0.96400000  0.67080000  0.97560000  1.0 -0.1241880204
C  C85  1  0.88910000  0.63550000  0.02160000  1.0 -0.1067797705
C  C86  1  0.82070000  0.66530000  0.94390000  1.0 -0.1595737581
C  C87  1  0.05560000  0.76920000  0.79420000  1.0 0.5666022585
C  C88  1  0.15490000  0.96010000  0.21490000  1.0 -0.1595737581
C  C89  1  0.11000000  0.01200000  0.07800000  1.0 -0.1842949404
C  C90  1  0.05830000  0.97670000  0.36470000  1.0 0.1100605884
C  C91  1  0.38290000  0.73770000  0.04610000  1.0 -0.1353837763
C  C92  1  0.43050000  0.70130000  0.20020000  1.0 -0.1241880204
C  C93  1  0.99470000  0.00530000  0.22920000  1.0 -0.3307630881
C  C94  1  0.26840000  0.73160000  0.19290000  1.0 -0.1353837763
C  C95  1  0.31590000  0.68410000  0.33300000  1.0 -0.1286721914
C  C96  1  0.00530000  0.99470000  0.77080000  1.0 -0.3307630881
C  C97  1  0.73160000  0.26840000  0.80710000  1.0 -0.1353837763
C  C98  1  0.68410000  0.31590000  0.66700000  1.0 -0.1286721914
N  N1  1  0.25260000  0.38980000  0.65550000  1.0 -0.2601260892
N  N2  1  0.15990000  0.23250000  0.66510000  1.0 -0.2601260892
N  N3  1  0.38980000  0.25260000  0.34450000  1.0 -0.2601260892
N  N4  1  0.23250000  0.15990000  0.33490000  1.0 -0.2601260892
N  N5  1  0.74740000  0.61020000  0.34450000  1.0 -0.2601260892
N  N6  1  0.84010000  0.76750000  0.33490000  1.0 -0.2601260892
N  N7  1  0.61020000  0.74740000  0.65550000  1.0 -0.2601260892
N  N8  1  0.76750000  0.84010000  0.66510000  1.0 -0.2601260892
N  N9  1  0.09410000  0.90590000  0.32330000  1.0 0.0420816899
N  N10  1  0.01670000  0.98330000  0.07320000  1.0 0.1779693873
N  N11  1  0.28910000  0.71090000  0.03470000  1.0 -0.0822151616
N  N12  1  0.36890000  0.63110000  0.27770000  1.0 -0.0242646885
N  N13  1  0.90590000  0.09410000  0.67670000  1.0 0.0420816899
N  N14  1  0.98330000  0.01670000  0.92680000  1.0 0.1779693873
N  N15  1  0.71090000  0.28910000  0.96530000  1.0 -0.0822151616
N  N16  1  0.63110000  0.36890000  0.72230000  1.0 -0.0242646885
O  O1  1  0.13179000  0.73161000  0.47700000  1.0 -0.5271869614
O  O2  1  0.19447000  0.67073000  0.69700000  1.0 -0.5271869614
O  O3  1  0.18843000  0.94537000  0.66280000  1.0 -0.5271869614
O  O4  1  0.25281000  0.88419000  0.88560000  1.0 -0.5467187777
O  O5  1  0.73161000  0.13179000  0.52300000  1.0 -0.5271869614
O  O6  1  0.67073000  0.19447000  0.30300000  1.0 -0.5271869614
O  O7  1  0.94537000  0.18843000  0.33720000  1.0 -0.5271869614
O  O8  1  0.88419000  0.25281000  0.11440000  1.0 -0.5467187777
O  O9  1  0.86821000  0.26839000  0.52300000  1.0 -0.5271869614
O  O10  1  0.80553000  0.32927000  0.30300000  1.0 -0.5271869614
O  O11  1  0.81157000  0.05463000  0.33720000  1.0 -0.5271869614
O  O12  1  0.74719000  0.11581000  0.11440000  1.0 -0.5467187777
O  O13  1  0.26839000  0.86821000  0.47700000  1.0 -0.5271869614
O  O14  1  0.32927000  0.80553000  0.69700000  1.0 -0.5271869614
O  O15  1  0.05463000  0.81157000  0.66280000  1.0 -0.5271869614
O  O16  1  0.11581000  0.74719000  0.88560000  1.0 -0.5467187777
