# DDEC6 charges by PACMAN v1.1 (https://github.com/mtap-research/PACMAN-charge/)
data_WERKUZ_FSR_pacman
_symmetry_space_group_name_H-M   'P 1'
_cell_length_a   4.73300000
_cell_length_b   17.30500000
_cell_length_c   19.24300000
_cell_angle_alpha   90.00000000
_cell_angle_beta   90.00000000
_cell_angle_gamma   90.00000000
_symmetry_Int_Tables_number   1
_chemical_formula_structural   NaPH11C9BrN3O8
_chemical_formula_sum   'Na4 P4 H44 C36 Br4 N12 O32'
_cell_volume   1576.08954429
_cell_formula_units_Z   4
loop_
 _symmetry_equiv_pos_site_id
 _symmetry_equiv_pos_as_xyz
  1  'x, y, z'
loop_
 _atom_site_type_symbol
 _atom_site_label
 _atom_site_symmetry_multiplicity
 _atom_site_fract_x
 _atom_site_fract_y
 _atom_site_fract_z
 _atom_site_occupancy
 _atom_site_charge
Na  Na1  1  0.03090000  0.32390000  0.45020000  1.0 0.8701242034
Na  Na2  1  0.53090000  0.17610000  0.54980000  1.0 0.8701242034
Na  Na3  1  0.96910000  0.82390000  0.04980000  1.0 0.8701242034
Na  Na4  1  0.46910000  0.67610000  0.95020000  1.0 0.8701242034
P  P1  1  0.00730000  0.55243000  0.89838000  1.0 1.4522774045
P  P2  1  0.50730000  0.94757000  0.10162000  1.0 1.4522774045
P  P3  1  0.99270000  0.05243000  0.60162000  1.0 1.4522774045
P  P4  1  0.49270000  0.44757000  0.39838000  1.0 1.4522774045
H  H1  1  0.23000000  0.21000000  0.76700000  1.0 0.30573642
H  H2  1  0.73000000  0.29000000  0.23300000  1.0 0.30573642
H  H3  1  0.77000000  0.71000000  0.73300000  1.0 0.30573642
H  H4  1  0.27000000  0.79000000  0.26700000  1.0 0.30573642
H  H5  1  0.23000000  0.19000000  0.68900000  1.0 0.3417967085
H  H6  1  0.73000000  0.31000000  0.31100000  1.0 0.3417967085
H  H7  1  0.77000000  0.69000000  0.81100000  1.0 0.3417967085
H  H8  1  0.27000000  0.81000000  0.18900000  1.0 0.3417967085
H  H9  1  0.92000000  0.39400000  0.77200000  1.0 0.1399822433
H  H10  1  0.42000000  0.10600000  0.22800000  1.0 0.1399822433
H  H11  1  0.08000000  0.89400000  0.72800000  1.0 0.1399822433
H  H12  1  0.58000000  0.60600000  0.27200000  1.0 0.1399822433
H  H13  1  0.24000000  0.40800000  0.60500000  1.0 0.1171000351
H  H14  1  0.74000000  0.09200000  0.39500000  1.0 0.1171000351
H  H15  1  0.76000000  0.90800000  0.89500000  1.0 0.1171000351
H  H16  1  0.26000000  0.59200000  0.10500000  1.0 0.1171000351
H  H17  1  0.78000000  0.48600000  0.58700000  1.0 0.1075082222
H  H18  1  0.28000000  0.01400000  0.41300000  1.0 0.1075082222
H  H19  1  0.22000000  0.98600000  0.91300000  1.0 0.1075082222
H  H20  1  0.72000000  0.51400000  0.08700000  1.0 0.1075082222
H  H21  1  0.23000000  0.49300000  0.51400000  1.0 0.3669979398
H  H22  1  0.73000000  0.00700000  0.48600000  1.0 0.3669979398
H  H23  1  0.77000000  0.99300000  0.98600000  1.0 0.3669979398
H  H24  1  0.27000000  0.50700000  0.01400000  1.0 0.3669979398
H  H25  1  0.79000000  0.52200000  0.70300000  1.0 0.0560143448
H  H26  1  0.29000000  0.97800000  0.29700000  1.0 0.0560143448
H  H27  1  0.21000000  0.02200000  0.79700000  1.0 0.0560143448
H  H28  1  0.71000000  0.47800000  0.20300000  1.0 0.0560143448
H  H29  1  0.99000000  0.64800000  0.61000000  1.0 0.3500580911
H  H30  1  0.49000000  0.85200000  0.39000000  1.0 0.3500580911
H  H31  1  0.01000000  0.14800000  0.89000000  1.0 0.3500580911
H  H32  1  0.51000000  0.35200000  0.11000000  1.0 0.3500580911
H  H33  1  0.37000000  0.56600000  0.68100000  1.0 0.1075082222
H  H34  1  0.87000000  0.93400000  0.31900000  1.0 0.1075082222
H  H35  1  0.63000000  0.06600000  0.81900000  1.0 0.1075082222
H  H36  1  0.13000000  0.43400000  0.18100000  1.0 0.1075082222
H  H37  1  0.44000000  0.53900000  0.79700000  1.0 0.1399822433
H  H38  1  0.94000000  0.96100000  0.20300000  1.0 0.1399822433
H  H39  1  0.56000000  0.03900000  0.70300000  1.0 0.1399822433
H  H40  1  0.06000000  0.46100000  0.29700000  1.0 0.1399822433
H  H41  1  0.21000000  0.62400000  0.78000000  1.0 0.0709142063
H  H42  1  0.71000000  0.87600000  0.22000000  1.0 0.0709142063
H  H43  1  0.79000000  0.12400000  0.72000000  1.0 0.0709142063
H  H44  1  0.29000000  0.37600000  0.28000000  1.0 0.0709142063
C  C1  1  0.80730000  0.31700000  0.62100000  1.0 0.6039871995
C  C2  1  0.30730000  0.18300000  0.37900000  1.0 0.6039871995
C  C3  1  0.19270000  0.81700000  0.87900000  1.0 0.6039871995
C  C4  1  0.69270000  0.68300000  0.12100000  1.0 0.6039871995
C  C5  1  0.52250000  0.26520000  0.70830000  1.0 0.4315280814
C  C6  1  0.02250000  0.23480000  0.29170000  1.0 0.4315280814
C  C7  1  0.47750000  0.76520000  0.79170000  1.0 0.4315280814
C  C8  1  0.97750000  0.73480000  0.20830000  1.0 0.4315280814
C  C9  1  0.64640000  0.31460000  0.75840000  1.0 -0.1017037562
C  C10  1  0.14640000  0.18540000  0.24160000  1.0 -0.1017037562
C  C11  1  0.35360000  0.81460000  0.74160000  1.0 -0.1017037562
C  C12  1  0.85360000  0.68540000  0.25840000  1.0 -0.1017037562
C  C13  1  0.84700000  0.36540000  0.73720000  1.0 0.0122874283
C  C14  1  0.34700000  0.13460000  0.26280000  1.0 0.0122874283
C  C15  1  0.15300000  0.86540000  0.76280000  1.0 0.0122874283
C  C16  1  0.65300000  0.63460000  0.23720000  1.0 0.0122874283
C  C17  1  0.13020000  0.42540000  0.64160000  1.0 0.1592676539
C  C18  1  0.63020000  0.07460000  0.35840000  1.0 0.1592676539
C  C19  1  0.86980000  0.92540000  0.85840000  1.0 0.1592676539
C  C20  1  0.36980000  0.57460000  0.14160000  1.0 0.1592676539
C  C21  1  0.98230000  0.49440000  0.60760000  1.0 0.0518031951
C  C22  1  0.48230000  0.00560000  0.39240000  1.0 0.0518031951
C  C23  1  0.01770000  0.99440000  0.89240000  1.0 0.0518031951
C  C24  1  0.51770000  0.50560000  0.10760000  1.0 0.0518031951
C  C25  1  0.95150000  0.54810000  0.66990000  1.0 0.1075082222
C  C26  1  0.45150000  0.95190000  0.33010000  1.0 0.1075082222
C  C27  1  0.04850000  0.04810000  0.83010000  1.0 0.1075082222
C  C28  1  0.54850000  0.45190000  0.16990000  1.0 0.1075082222
C  C29  1  0.23700000  0.53750000  0.70450000  1.0 0.0777972315
C  C30  1  0.73700000  0.96250000  0.29550000  1.0 0.0777972315
C  C31  1  0.76300000  0.03750000  0.79550000  1.0 0.0777972315
C  C32  1  0.26300000  0.46250000  0.20450000  1.0 0.0777972315
C  C33  1  0.26130000  0.56000000  0.78010000  1.0 0.0047965994
C  C34  1  0.76130000  0.94000000  0.21990000  1.0 0.0047965994
C  C35  1  0.73870000  0.06000000  0.71990000  1.0 0.0047965994
C  C36  1  0.23870000  0.44000000  0.28010000  1.0 0.0047965994
Br  Br1  1  0.52350000  0.31336000  0.85130000  1.0 0.0560143448
Br  Br2  1  0.02350000  0.18664000  0.14870000  1.0 0.0560143448
Br  Br3  1  0.47650000  0.81336000  0.64870000  1.0 0.0560143448
Br  Br4  1  0.97650000  0.68664000  0.35130000  1.0 0.0560143448
N  N1  1  0.92250000  0.36790000  0.66900000  1.0 -0.1328235443
N  N2  1  0.42250000  0.13210000  0.33100000  1.0 -0.1328235443
N  N3  1  0.07750000  0.86790000  0.83100000  1.0 -0.1328235443
N  N4  1  0.57750000  0.63210000  0.16900000  1.0 -0.1328235443
N  N5  1  0.60440000  0.26690000  0.64210000  1.0 -0.5626904841
N  N6  1  0.10440000  0.23310000  0.35790000  1.0 -0.5626904841
N  N7  1  0.39560000  0.76690000  0.85790000  1.0 -0.5626904841
N  N8  1  0.89560000  0.73310000  0.14210000  1.0 -0.5626904841
N  N9  1  0.31180000  0.21590000  0.72500000  1.0 -0.577911156
N  N10  1  0.81180000  0.28410000  0.27500000  1.0 -0.577911156
N  N11  1  0.68820000  0.71590000  0.77500000  1.0 -0.577911156
N  N12  1  0.18820000  0.78410000  0.22500000  1.0 -0.577911156
O  O1  1  0.88620000  0.31920000  0.55980000  1.0 -0.6089929219
O  O2  1  0.38620000  0.18080000  0.44020000  1.0 -0.6089929219
O  O3  1  0.11380000  0.81920000  0.94020000  1.0 -0.6089929219
O  O4  1  0.61380000  0.68080000  0.05980000  1.0 -0.6089929219
O  O5  1  0.17010000  0.53090000  0.56040000  1.0 -0.4498924192
O  O6  1  0.67010000  0.96910000  0.43960000  1.0 -0.4498924192
O  O7  1  0.82990000  0.03090000  0.93960000  1.0 -0.4498924192
O  O8  1  0.32990000  0.46910000  0.06040000  1.0 -0.4498924192
O  O9  1  0.88970000  0.62620000  0.65550000  1.0 -0.4892690356
O  O10  1  0.38970000  0.87380000  0.34450000  1.0 -0.4892690356
O  O11  1  0.11030000  0.12620000  0.84450000  1.0 -0.4892690356
O  O12  1  0.61030000  0.37380000  0.15550000  1.0 -0.4892690356
O  O13  1  0.29230000  0.45510000  0.69690000  1.0 -0.2652103032
O  O14  1  0.79230000  0.04490000  0.30310000  1.0 -0.2652103032
O  O15  1  0.70770000  0.95510000  0.80310000  1.0 -0.2652103032
O  O16  1  0.20770000  0.54490000  0.19690000  1.0 -0.2652103032
O  O17  1  0.05080000  0.52110000  0.82090000  1.0 -0.4101547475
O  O18  1  0.55080000  0.97890000  0.17910000  1.0 -0.4101547475
O  O19  1  0.94920000  0.02110000  0.67910000  1.0 -0.4101547475
O  O20  1  0.44920000  0.47890000  0.32090000  1.0 -0.4101547475
O  O21  1  0.28380000  0.54690000  0.93690000  1.0 -0.7929778125
O  O22  1  0.78380000  0.95310000  0.06310000  1.0 -0.7929778125
O  O23  1  0.71620000  0.04690000  0.56310000  1.0 -0.7929778125
O  O24  1  0.21620000  0.45310000  0.43690000  1.0 -0.7929778125
O  O25  1  0.88200000  0.63120000  0.89580000  1.0 -0.8506147292
O  O26  1  0.38200000  0.86880000  0.10420000  1.0 -0.8506147292
O  O27  1  0.11800000  0.13120000  0.60420000  1.0 -0.8506147292
O  O28  1  0.61800000  0.36880000  0.39580000  1.0 -0.8506147292
O  O29  1  0.79550000  0.49090000  0.92810000  1.0 -0.6887493308
O  O30  1  0.29550000  0.00910000  0.07190000  1.0 -0.6887493308
O  O31  1  0.20450000  0.99090000  0.57190000  1.0 -0.6887493308
O  O32  1  0.70450000  0.50910000  0.42810000  1.0 -0.6887493308
