# DDEC6 charges by PACMAN v1.1 (https://github.com/mtap-research/PACMAN-charge/)
data_WERRUK_ASR_pacman
_symmetry_space_group_name_H-M   'P 1'
_cell_length_a   10.34640000
_cell_length_b   10.34640000
_cell_length_c   14.21850000
_cell_angle_alpha   90.00000000
_cell_angle_beta   90.00000000
_cell_angle_gamma   90.00000000
_symmetry_Int_Tables_number   1
_chemical_formula_structural   TbH7C9(NO3)2
_chemical_formula_sum   'Tb4 H28 C36 N8 O24'
_cell_volume   1522.06188790
_cell_formula_units_Z   4
loop_
 _symmetry_equiv_pos_site_id
 _symmetry_equiv_pos_as_xyz
  1  'x, y, z'
loop_
 _atom_site_type_symbol
 _atom_site_label
 _atom_site_symmetry_multiplicity
 _atom_site_fract_x
 _atom_site_fract_y
 _atom_site_fract_z
 _atom_site_occupancy
 _atom_site_charge
Tb  Tb1  1  0.36406000  0.63594000  0.12500000  1.0 2.0237760091
Tb  Tb2  1  0.63594000  0.36406000  0.62500000  1.0 2.0237760091
Tb  Tb3  1  0.36406000  0.36406000  0.37500000  1.0 2.0237760091
Tb  Tb4  1  0.63594000  0.63594000  0.87500000  1.0 2.0237760091
H  H1  1  0.41780000  0.09110000  0.21400000  1.0 0.2357330186
H  H2  1  0.43540000  0.95720000  0.17110000  1.0 0.2003402666
H  H3  1  0.44470000  0.05060000  0.13780000  1.0 0.0431252265
H  H4  1  0.58220000  0.90890000  0.71400000  1.0 0.2357330186
H  H5  1  0.56460000  0.04280000  0.67110000  1.0 0.2003402666
H  H6  1  0.55530000  0.94940000  0.63780000  1.0 0.0431252265
H  H7  1  0.90890000  0.41780000  0.46400000  1.0 0.2357330186
H  H8  1  0.04280000  0.43540000  0.42110000  1.0 0.2003402666
H  H9  1  0.94940000  0.44470000  0.38780000  1.0 0.0431252265
H  H10  1  0.09110000  0.58220000  0.96400000  1.0 0.2357330186
H  H11  1  0.95720000  0.56460000  0.92110000  1.0 0.2003402666
H  H12  1  0.05060000  0.55530000  0.88780000  1.0 0.0431252265
H  H13  1  0.58220000  0.09110000  0.78600000  1.0 0.2357330186
H  H14  1  0.56460000  0.95720000  0.82890000  1.0 0.2003402666
H  H15  1  0.55530000  0.05060000  0.86220000  1.0 0.0431252265
H  H16  1  0.41780000  0.90890000  0.28600000  1.0 0.2357330186
H  H17  1  0.43540000  0.04280000  0.32890000  1.0 0.2003402666
H  H18  1  0.44470000  0.94940000  0.36220000  1.0 0.0431252265
H  H19  1  0.09110000  0.41780000  0.53600000  1.0 0.2357330186
H  H20  1  0.95720000  0.43540000  0.57890000  1.0 0.2003402666
H  H21  1  0.05060000  0.44470000  0.61220000  1.0 0.0431252265
H  H22  1  0.90890000  0.58220000  0.03600000  1.0 0.2357330186
H  H23  1  0.04280000  0.56460000  0.07890000  1.0 0.2003402666
H  H24  1  0.94940000  0.55530000  0.11220000  1.0 0.0431252265
H  H25  1  0.50000000  0.38510000  0.00000000  1.0 0.125103935
H  H26  1  0.50000000  0.61490000  0.50000000  1.0 0.125103935
H  H27  1  0.61490000  0.50000000  0.25000000  1.0 0.125103935
H  H28  1  0.38510000  0.50000000  0.75000000  1.0 0.125103935
C  C1  1  0.46690000  0.09630000  0.08210000  1.0 0.1845360486
C  C2  1  0.46560000  0.22960000  0.08110000  1.0 -0.1278375952
C  C3  1  0.42680000  0.30530000  0.16480000  1.0 0.6243679667
C  C4  1  0.53310000  0.90370000  0.58210000  1.0 0.1845360486
C  C5  1  0.53440000  0.77040000  0.58110000  1.0 -0.1278375952
C  C6  1  0.57320000  0.69470000  0.66480000  1.0 0.6243679667
C  C7  1  0.90370000  0.46690000  0.33210000  1.0 0.1845360486
C  C8  1  0.77040000  0.46560000  0.33110000  1.0 -0.1278375952
C  C9  1  0.69470000  0.42680000  0.41480000  1.0 0.6243679667
C  C10  1  0.09630000  0.53310000  0.83210000  1.0 0.1845360486
C  C11  1  0.22960000  0.53440000  0.83110000  1.0 -0.1278375952
C  C12  1  0.30530000  0.57320000  0.91480000  1.0 0.6243679667
C  C13  1  0.53310000  0.09630000  0.91790000  1.0 0.1845360486
C  C14  1  0.53440000  0.22960000  0.91890000  1.0 -0.1278375952
C  C15  1  0.57320000  0.30530000  0.83520000  1.0 0.6243679667
C  C16  1  0.46690000  0.90370000  0.41790000  1.0 0.1845360486
C  C17  1  0.46560000  0.77040000  0.41890000  1.0 -0.1278375952
C  C18  1  0.42680000  0.69470000  0.33520000  1.0 0.6243679667
C  C19  1  0.09630000  0.46690000  0.66790000  1.0 0.1845360486
C  C20  1  0.22960000  0.46560000  0.66890000  1.0 -0.1278375952
C  C21  1  0.30530000  0.42680000  0.58520000  1.0 0.6243679667
C  C22  1  0.90370000  0.53310000  0.16790000  1.0 0.1845360486
C  C23  1  0.77040000  0.53440000  0.16890000  1.0 -0.1278375952
C  C24  1  0.69470000  0.57320000  0.08520000  1.0 0.6243679667
C  C25  1  0.50000000  0.88300000  0.00000000  1.0 0.6387121076
C  C26  1  0.50000000  0.02850000  0.00000000  1.0 -0.2269313677
C  C27  1  0.50000000  0.29330000  0.00000000  1.0 -0.1278375952
C  C28  1  0.50000000  0.11700000  0.50000000  1.0 0.6387121076
C  C29  1  0.50000000  0.97150000  0.50000000  1.0 -0.2269313677
C  C30  1  0.50000000  0.70670000  0.50000000  1.0 -0.1278375952
C  C31  1  0.11700000  0.50000000  0.25000000  1.0 0.6387121076
C  C32  1  0.97150000  0.50000000  0.25000000  1.0 -0.2269313677
C  C33  1  0.70670000  0.50000000  0.25000000  1.0 -0.1278375952
C  C34  1  0.88300000  0.50000000  0.75000000  1.0 0.6387121076
C  C35  1  0.02850000  0.50000000  0.75000000  1.0 -0.2269313677
C  C36  1  0.29330000  0.50000000  0.75000000  1.0 -0.1278375952
N  N1  1  0.43650000  0.04190000  0.16540000  1.0 -0.4433626203
N  N2  1  0.56350000  0.95810000  0.66540000  1.0 -0.4433626203
N  N3  1  0.95810000  0.43650000  0.41540000  1.0 -0.4433626203
N  N4  1  0.04190000  0.56350000  0.91540000  1.0 -0.4433626203
N  N5  1  0.56350000  0.04190000  0.83460000  1.0 -0.4433626203
N  N6  1  0.43650000  0.95810000  0.33460000  1.0 -0.4433626203
N  N7  1  0.04190000  0.43650000  0.58460000  1.0 -0.4433626203
N  N8  1  0.95810000  0.56350000  0.08460000  1.0 -0.4433626203
O  O1  1  0.44000000  0.82540000  0.06330000  1.0 -0.6818322396
O  O2  1  0.40590000  0.42100000  0.16150000  1.0 -0.6481147191
O  O3  1  0.41960000  0.24950000  0.24260000  1.0 -0.6033668971
O  O4  1  0.56000000  0.17460000  0.56330000  1.0 -0.6818322396
O  O5  1  0.59410000  0.57900000  0.66150000  1.0 -0.6481147191
O  O6  1  0.58040000  0.75050000  0.74260000  1.0 -0.6033668971
O  O7  1  0.17460000  0.44000000  0.31330000  1.0 -0.6818322396
O  O8  1  0.57900000  0.40590000  0.41150000  1.0 -0.6481147191
O  O9  1  0.75050000  0.41960000  0.49260000  1.0 -0.6033668971
O  O10  1  0.82540000  0.56000000  0.81330000  1.0 -0.6818322396
O  O11  1  0.42100000  0.59410000  0.91150000  1.0 -0.6481147191
O  O12  1  0.24950000  0.58040000  0.99260000  1.0 -0.6033668971
O  O13  1  0.56000000  0.82540000  0.93670000  1.0 -0.6818322396
O  O14  1  0.59410000  0.42100000  0.83850000  1.0 -0.6481147191
O  O15  1  0.58040000  0.24950000  0.75740000  1.0 -0.6033668971
O  O16  1  0.44000000  0.17460000  0.43670000  1.0 -0.6818322396
O  O17  1  0.40590000  0.57900000  0.33850000  1.0 -0.6481147191
O  O18  1  0.41960000  0.75050000  0.25740000  1.0 -0.6033668971
O  O19  1  0.82540000  0.44000000  0.68670000  1.0 -0.6818322396
O  O20  1  0.42100000  0.40590000  0.58850000  1.0 -0.6481147191
O  O21  1  0.24950000  0.41960000  0.50740000  1.0 -0.6033668971
O  O22  1  0.17460000  0.56000000  0.18670000  1.0 -0.6818322396
O  O23  1  0.57900000  0.59410000  0.08850000  1.0 -0.6481147191
O  O24  1  0.75050000  0.58040000  0.00740000  1.0 -0.6033668971
