# DDEC6 charges by PACMAN v1.1 (https://github.com/mtap-research/PACMAN-charge/)
data_WESGIO_ASR_pacman
_symmetry_space_group_name_H-M   'P 1'
_cell_length_a   10.05110000
_cell_length_b   11.23220000
_cell_length_c   13.82830000
_cell_angle_alpha   73.89300000
_cell_angle_beta   72.66500000
_cell_angle_gamma   80.03200000
_symmetry_Int_Tables_number   1
_chemical_formula_structural   CeH12(C7O3)3
_chemical_formula_sum   'Ce2 H24 C42 O18'
_cell_volume   1424.77246519
_cell_formula_units_Z   2
loop_
 _symmetry_equiv_pos_site_id
 _symmetry_equiv_pos_as_xyz
  1  'x, y, z'
loop_
 _atom_site_type_symbol
 _atom_site_label
 _atom_site_symmetry_multiplicity
 _atom_site_fract_x
 _atom_site_fract_y
 _atom_site_fract_z
 _atom_site_occupancy
 _atom_site_charge
Ce  Ce1  1  0.99160000  0.44512000  0.65922000  1.0 1.9392704404
Ce  Ce2  1  0.00840000  0.55488000  0.34078000  1.0 1.9392704404
H  H1  1  0.65796000  0.23647000  0.79977000  1.0 0.2203970364
H  H2  1  0.79880000  0.08773000  0.94972000  1.0 0.122696582
H  H3  1  0.37392000  0.97105000  0.45839000  1.0 0.2137699461
H  H4  1  0.39059000  0.97417000  0.91434000  1.0 0.1005658692
H  H5  1  0.35422000  0.04181000  0.00587000  1.0 0.1005658692
H  H6  1  0.08621000  0.91612000  0.35676000  1.0 0.1327580547
H  H7  1  0.18605000  0.04774000  0.20620000  1.0 0.122696582
H  H8  1  0.29452000  0.99547000  0.27411000  1.0 0.1132634579
H  H9  1  0.48098000  0.28754000  0.04858000  1.0 0.2406321055
H  H10  1  0.47009000  0.66143000  0.35944000  1.0 0.1376202962
H  H11  1  0.74297000  0.83262000  0.32679000  1.0 0.1376202962
H  H12  1  0.64683000  0.77116000  0.28790000  1.0 0.122696582
H  H13  1  0.34204000  0.76353000  0.20023000  1.0 0.2203970364
H  H14  1  0.20120000  0.91227000  0.05028000  1.0 0.122696582
H  H15  1  0.62608000  0.02895000  0.54161000  1.0 0.2137699461
H  H16  1  0.60941000  0.02583000  0.08566000  1.0 0.1005658692
H  H17  1  0.64578000  0.95819000  0.99413000  1.0 0.1005658692
H  H18  1  0.91379000  0.08388000  0.64324000  1.0 0.1327580547
H  H19  1  0.81395000  0.95226000  0.79380000  1.0 0.122696582
H  H20  1  0.70548000  0.00453000  0.72589000  1.0 0.1132634579
H  H21  1  0.51902000  0.71246000  0.95142000  1.0 0.2406321055
H  H22  1  0.52991000  0.33857000  0.64056000  1.0 0.1376202962
H  H23  1  0.25703000  0.16738000  0.67321000  1.0 0.1376202962
H  H24  1  0.35317000  0.22884000  0.71210000  1.0 0.122696582
C  C1  1  0.00200000  0.11120000  0.92120000  1.0 -0.0902350956
C  C2  1  0.58110000  0.19080000  0.83250000  1.0 -0.3452495003
C  C3  1  0.88000000  0.05250000  0.97000000  1.0 -0.2566458845
C  C4  1  0.45060000  0.91960000  0.43090000  1.0 -0.2970805132
C  C5  1  0.99300000  0.22880000  0.83690000  1.0 0.5742902195
C  C6  1  0.12490000  0.05710000  0.95170000  1.0 0.2203970364
C  C7  1  0.36820000  0.05470000  0.93130000  1.0 -0.0535661338
C  C8  1  0.48290000  0.13260000  0.87420000  1.0 0.0018143043
C  C9  1  0.25940000  0.52830000  0.42010000  1.0 0.627312783
C  C10  1  0.05280000  0.25070000  0.49240000  1.0 0.6460012829
C  C11  1  0.02890000  0.12070000  0.49340000  1.0 -0.1014542097
C  C12  1  0.05180000  0.95000000  0.41470000  1.0 -0.2549670303
C  C13  1  0.08250000  0.06840000  0.40630000  1.0 0.2137699461
C  C14  1  0.24410000  0.07030000  0.24200000  1.0 -0.0405802635
C  C15  1  0.34480000  0.16390000  0.16710000  1.0 0.0559924541
C  C16  1  0.42160000  0.23360000  0.10030000  1.0 -0.3412512207
C  C17  1  0.38450000  0.51150000  0.46160000  1.0 -0.0902350956
C  C18  1  0.59750000  0.58520000  0.45410000  1.0 0.2338894045
C  C19  1  0.48180000  0.59650000  0.41590000  1.0 -0.2145358139
C  C20  1  0.66290000  0.78470000  0.34960000  1.0 -0.0405802635
C  C21  1  0.54550000  0.85580000  0.39690000  1.0 -0.0056119297
C  C22  1  0.99800000  0.88880000  0.07880000  1.0 -0.0902350956
C  C23  1  0.41890000  0.80920000  0.16750000  1.0 -0.3412512207
C  C24  1  0.12000000  0.94750000  0.03000000  1.0 -0.2566458845
C  C25  1  0.54940000  0.08040000  0.56910000  1.0 -0.2970805132
C  C26  1  0.00700000  0.77120000  0.16310000  1.0 0.5753223336
C  C27  1  0.87510000  0.94290000  0.04830000  1.0 0.2203970364
C  C28  1  0.63180000  0.94530000  0.06870000  1.0 -0.0535661338
C  C29  1  0.51710000  0.86740000  0.12580000  1.0 0.0018143043
C  C30  1  0.74060000  0.47170000  0.57990000  1.0 0.627312783
C  C31  1  0.94720000  0.74930000  0.50760000  1.0 0.6460012829
C  C32  1  0.97110000  0.87930000  0.50660000  1.0 -0.1014542097
C  C33  1  0.94820000  0.05000000  0.58530000  1.0 -0.2549670303
C  C34  1  0.91750000  0.93160000  0.59370000  1.0 0.2137699461
C  C35  1  0.75590000  0.92970000  0.75800000  1.0 -0.0405802635
C  C36  1  0.65520000  0.83610000  0.83290000  1.0 0.0546101144
C  C37  1  0.57840000  0.76640000  0.89970000  1.0 -0.3412512207
C  C38  1  0.61550000  0.48850000  0.53840000  1.0 -0.0902350956
C  C39  1  0.40250000  0.41480000  0.54590000  1.0 0.2338894045
C  C40  1  0.51820000  0.40350000  0.58410000  1.0 -0.2150970215
C  C41  1  0.33710000  0.21530000  0.65040000  1.0 -0.0405802635
C  C42  1  0.45450000  0.14420000  0.60310000  1.0 -0.0056119297
O  O1  1  0.88630000  0.25720000  0.80620000  1.0 -0.5600545072
O  O2  1  0.08820000  0.29950000  0.80280000  1.0 -0.5950847232
O  O3  1  0.24420000  0.11610000  0.90260000  1.0 -0.1722182372
O  O4  1  0.14020000  0.51770000  0.48520000  1.0 -0.6810567939
O  O5  1  0.27290000  0.55520000  0.32340000  1.0 -0.5600545072
O  O6  1  0.07400000  0.32930000  0.40540000  1.0 -0.6199655199
O  O7  1  0.03890000  0.26940000  0.58010000  1.0 -0.6199655199
O  O8  1  0.16360000  0.13550000  0.31590000  1.0 -0.1396723652
O  O9  1  0.69770000  0.66690000  0.41340000  1.0 -0.2001046354
O  O10  1  0.11370000  0.74280000  0.19380000  1.0 -0.5600545072
O  O11  1  0.91180000  0.70050000  0.19720000  1.0 -0.5938731396
O  O12  1  0.75580000  0.88390000  0.09740000  1.0 -0.1722182372
O  O13  1  0.85980000  0.48230000  0.51480000  1.0 -0.6810567939
O  O14  1  0.72710000  0.44480000  0.67660000  1.0 -0.5600545072
O  O15  1  0.92600000  0.67070000  0.59460000  1.0 -0.6199655199
O  O16  1  0.96110000  0.73060000  0.41990000  1.0 -0.6199655199
O  O17  1  0.83640000  0.86450000  0.68410000  1.0 -0.1396723652
O  O18  1  0.30230000  0.33310000  0.58660000  1.0 -0.2001046354
