# DDEC6 charges by PACMAN v1.1 (https://github.com/mtap-research/PACMAN-charge/)
data_WEVFAI_ASR_pacman
_symmetry_space_group_name_H-M   'P 1'
_cell_length_a   21.21030000
_cell_length_b   21.21030000
_cell_length_c   21.21030000
_cell_angle_alpha   116.32700000
_cell_angle_beta   116.32700000
_cell_angle_gamma   116.32700000
_symmetry_Int_Tables_number   1
_chemical_formula_structural   Zn2H5C13(N2O3)2
_chemical_formula_sum   'Zn12 H30 C78 N24 O36'
_cell_volume   4630.40641224
_cell_formula_units_Z   6
loop_
 _symmetry_equiv_pos_site_id
 _symmetry_equiv_pos_as_xyz
  1  'x, y, z'
loop_
 _atom_site_type_symbol
 _atom_site_label
 _atom_site_symmetry_multiplicity
 _atom_site_fract_x
 _atom_site_fract_y
 _atom_site_fract_z
 _atom_site_occupancy
 _atom_site_charge
Zn  Zn1  1  0.94614000  0.47600000  0.03367000  1.0 0.8613917819
Zn  Zn2  1  0.83491000  0.28916000  0.02646000  1.0 0.8071118981
Zn  Zn3  1  0.47600000  0.03367000  0.94614000  1.0 0.8613917819
Zn  Zn4  1  0.28916000  0.02646000  0.83491000  1.0 0.8071118981
Zn  Zn5  1  0.03367000  0.94614000  0.47600000  1.0 0.8613917819
Zn  Zn6  1  0.02646000  0.83491000  0.28916000  1.0 0.8071118981
Zn  Zn7  1  0.05386000  0.52400000  0.96633000  1.0 0.8613917819
Zn  Zn8  1  0.16509000  0.71084000  0.97354000  1.0 0.8071118981
Zn  Zn9  1  0.52400000  0.96633000  0.05386000  1.0 0.8613917819
Zn  Zn10  1  0.71084000  0.97354000  0.16509000  1.0 0.8071118981
Zn  Zn11  1  0.96633000  0.05386000  0.52400000  1.0 0.8613917819
Zn  Zn12  1  0.97354000  0.16509000  0.71084000  1.0 0.8071118981
H  H1  1  0.41120000  0.14580000  0.58790000  1.0 0.1314245056
H  H2  1  0.53010000  0.18080000  0.85760000  1.0 0.1229826427
H  H3  1  0.60060000  0.26140000  0.74010000  1.0 0.1314245056
H  H4  1  0.34570000  0.07770000  0.71370000  1.0 0.1229826427
H  H5  1  0.83890000  0.14040000  0.89190000  1.0 0.1314245056
H  H6  1  0.14580000  0.58790000  0.41120000  1.0 0.1314245056
H  H7  1  0.18080000  0.85760000  0.53010000  1.0 0.1229826427
H  H8  1  0.26140000  0.74010000  0.60060000  1.0 0.1314245056
H  H9  1  0.07770000  0.71370000  0.34570000  1.0 0.1229826427
H  H10  1  0.14040000  0.89190000  0.83890000  1.0 0.1314245056
H  H11  1  0.58790000  0.41120000  0.14580000  1.0 0.1314245056
H  H12  1  0.85760000  0.53010000  0.18080000  1.0 0.1229826427
H  H13  1  0.74010000  0.60060000  0.26140000  1.0 0.1314245056
H  H14  1  0.71370000  0.34570000  0.07770000  1.0 0.1229826427
H  H15  1  0.89190000  0.83890000  0.14040000  1.0 0.1314245056
H  H16  1  0.58880000  0.85420000  0.41210000  1.0 0.1314245056
H  H17  1  0.46990000  0.81920000  0.14240000  1.0 0.1229826427
H  H18  1  0.39940000  0.73860000  0.25990000  1.0 0.1314245056
H  H19  1  0.65430000  0.92230000  0.28630000  1.0 0.1229826427
H  H20  1  0.16110000  0.85960000  0.10810000  1.0 0.1314245056
H  H21  1  0.85420000  0.41210000  0.58880000  1.0 0.1314245056
H  H22  1  0.81920000  0.14240000  0.46990000  1.0 0.1229826427
H  H23  1  0.73860000  0.25990000  0.39940000  1.0 0.1314245056
H  H24  1  0.92230000  0.28630000  0.65430000  1.0 0.1229826427
H  H25  1  0.85960000  0.10810000  0.16110000  1.0 0.1314245056
H  H26  1  0.41210000  0.58880000  0.85420000  1.0 0.1314245056
H  H27  1  0.14240000  0.46990000  0.81920000  1.0 0.1229826427
H  H28  1  0.25990000  0.39940000  0.73860000  1.0 0.1314245056
H  H29  1  0.28630000  0.65430000  0.92230000  1.0 0.1229826427
H  H30  1  0.10810000  0.16110000  0.85960000  1.0 0.1314245056
C  C1  1  0.43610000  0.15490000  0.64360000  1.0 -0.0968288896
C  C2  1  0.50690000  0.17520000  0.80450000  1.0 -0.0968288896
C  C3  1  0.91890000  0.23150000  0.88310000  1.0 -0.187124884
C  C4  1  0.54860000  0.22190000  0.73320000  1.0 -0.0968288896
C  C5  1  0.93230000  0.18630000  0.82520000  1.0 0.5099727503
C  C6  1  0.39640000  0.11270000  0.71770000  1.0 -0.0942538129
C  C7  1  0.87010000  0.20110000  0.90800000  1.0 0.046954652
C  C8  1  0.58460000  0.23050000  0.81280000  1.0 -0.0192050371
C  C9  1  0.35990000  0.10130000  0.63600000  1.0 -0.0068734278
C  C10  1  0.01820000  0.33990000  0.86410000  1.0 0.3245147557
C  C11  1  0.95360000  0.32720000  0.92430000  1.0 0.2998237153
C  C12  1  0.23520000  0.02300000  0.53510000  1.0 0.5902217022
C  C13  1  0.70420000  0.29700000  0.90510000  1.0 0.5964575401
C  C14  1  0.15490000  0.64360000  0.43610000  1.0 -0.0968288896
C  C15  1  0.17520000  0.80450000  0.50690000  1.0 -0.0968288896
C  C16  1  0.23150000  0.88310000  0.91890000  1.0 -0.187124884
C  C17  1  0.22190000  0.73320000  0.54860000  1.0 -0.0968288896
C  C18  1  0.18630000  0.82520000  0.93230000  1.0 0.5099727503
C  C19  1  0.11270000  0.71770000  0.39640000  1.0 -0.0942538129
C  C20  1  0.20110000  0.90800000  0.87010000  1.0 0.046954652
C  C21  1  0.23050000  0.81280000  0.58460000  1.0 -0.0192050371
C  C22  1  0.10130000  0.63600000  0.35990000  1.0 -0.0068734278
C  C23  1  0.33990000  0.86410000  0.01820000  1.0 0.3245147557
C  C24  1  0.32720000  0.92430000  0.95360000  1.0 0.2998237153
C  C25  1  0.02300000  0.53510000  0.23520000  1.0 0.5902217022
C  C26  1  0.29700000  0.90510000  0.70420000  1.0 0.5964575401
C  C27  1  0.64360000  0.43610000  0.15490000  1.0 -0.0968288896
C  C28  1  0.80450000  0.50690000  0.17520000  1.0 -0.0968288896
C  C29  1  0.88310000  0.91890000  0.23150000  1.0 -0.187124884
C  C30  1  0.73320000  0.54860000  0.22190000  1.0 -0.0968288896
C  C31  1  0.82520000  0.93230000  0.18630000  1.0 0.5099727503
C  C32  1  0.71770000  0.39640000  0.11270000  1.0 -0.0942538129
C  C33  1  0.90800000  0.87010000  0.20110000  1.0 0.046954652
C  C34  1  0.81280000  0.58460000  0.23050000  1.0 -0.0192050371
C  C35  1  0.63600000  0.35990000  0.10130000  1.0 -0.0068734278
C  C36  1  0.86410000  0.01820000  0.33990000  1.0 0.3245147557
C  C37  1  0.92430000  0.95360000  0.32720000  1.0 0.2998237153
C  C38  1  0.53510000  0.23520000  0.02300000  1.0 0.5902217022
C  C39  1  0.90510000  0.70420000  0.29700000  1.0 0.5964575401
C  C40  1  0.56390000  0.84510000  0.35640000  1.0 -0.0968288896
C  C41  1  0.49310000  0.82480000  0.19550000  1.0 -0.0968288896
C  C42  1  0.08110000  0.76850000  0.11690000  1.0 -0.187124884
C  C43  1  0.45140000  0.77810000  0.26680000  1.0 -0.0968288896
C  C44  1  0.06770000  0.81370000  0.17480000  1.0 0.5099727503
C  C45  1  0.60360000  0.88730000  0.28230000  1.0 -0.0942538129
C  C46  1  0.12990000  0.79890000  0.09200000  1.0 0.046954652
C  C47  1  0.41540000  0.76950000  0.18720000  1.0 -0.0192050371
C  C48  1  0.64010000  0.89870000  0.36400000  1.0 -0.0068734278
C  C49  1  0.98180000  0.66010000  0.13590000  1.0 0.3245147557
C  C50  1  0.04640000  0.67280000  0.07570000  1.0 0.2998237153
C  C51  1  0.76480000  0.97700000  0.46490000  1.0 0.5902217022
C  C52  1  0.29580000  0.70300000  0.09490000  1.0 0.5964575401
C  C53  1  0.84510000  0.35640000  0.56390000  1.0 -0.0968288896
C  C54  1  0.82480000  0.19550000  0.49310000  1.0 -0.0968288896
C  C55  1  0.76850000  0.11690000  0.08110000  1.0 -0.187124884
C  C56  1  0.77810000  0.26680000  0.45140000  1.0 -0.0968288896
C  C57  1  0.81370000  0.17480000  0.06770000  1.0 0.5099727503
C  C58  1  0.88730000  0.28230000  0.60360000  1.0 -0.0942538129
C  C59  1  0.79890000  0.09200000  0.12990000  1.0 0.046954652
C  C60  1  0.76950000  0.18720000  0.41540000  1.0 -0.0192050371
C  C61  1  0.89870000  0.36400000  0.64010000  1.0 -0.0068734278
C  C62  1  0.66010000  0.13590000  0.98180000  1.0 0.3245147557
C  C63  1  0.67280000  0.07570000  0.04640000  1.0 0.2998237153
C  C64  1  0.97700000  0.46490000  0.76480000  1.0 0.5902217022
C  C65  1  0.70300000  0.09490000  0.29580000  1.0 0.5964575401
C  C66  1  0.35640000  0.56390000  0.84510000  1.0 -0.0968288896
C  C67  1  0.19550000  0.49310000  0.82480000  1.0 -0.0968288896
C  C68  1  0.11690000  0.08110000  0.76850000  1.0 -0.187124884
C  C69  1  0.26680000  0.45140000  0.77810000  1.0 -0.0968288896
C  C70  1  0.17480000  0.06770000  0.81370000  1.0 0.5099727503
C  C71  1  0.28230000  0.60360000  0.88730000  1.0 -0.0942538129
C  C72  1  0.09200000  0.12990000  0.79890000  1.0 0.046954652
C  C73  1  0.18720000  0.41540000  0.76950000  1.0 -0.0192050371
C  C74  1  0.36400000  0.64010000  0.89870000  1.0 -0.0068734278
C  C75  1  0.13590000  0.98180000  0.66010000  1.0 0.3245147557
C  C76  1  0.07570000  0.04640000  0.67280000  1.0 0.2998237153
C  C77  1  0.46490000  0.76480000  0.97700000  1.0 0.5902217022
C  C78  1  0.09490000  0.29580000  0.70300000  1.0 0.5964575401
N  N1  1  0.92788000  0.35277000  0.96975000  1.0 -0.2412721375
N  N2  1  0.87569000  0.27257000  0.95814000  1.0 -0.166764064
N  N3  1  0.00636000  0.38547000  0.91647000  1.0 -0.3842587629
N  N4  1  0.98427000  0.24652000  0.81891000  1.0 -0.4478376219
N  N5  1  0.35277000  0.96975000  0.92788000  1.0 -0.2412721375
N  N6  1  0.27257000  0.95814000  0.87569000  1.0 -0.166764064
N  N7  1  0.38547000  0.91647000  0.00636000  1.0 -0.3842587629
N  N8  1  0.24652000  0.81891000  0.98427000  1.0 -0.4478376219
N  N9  1  0.96975000  0.92788000  0.35277000  1.0 -0.2412721375
N  N10  1  0.95814000  0.87569000  0.27257000  1.0 -0.166764064
N  N11  1  0.91647000  0.00636000  0.38547000  1.0 -0.3842587629
N  N12  1  0.81891000  0.98427000  0.24652000  1.0 -0.4478376219
N  N13  1  0.07212000  0.64723000  0.03025000  1.0 -0.2412721375
N  N14  1  0.12431000  0.72743000  0.04186000  1.0 -0.166764064
N  N15  1  0.99364000  0.61453000  0.08353000  1.0 -0.3842587629
N  N16  1  0.01573000  0.75348000  0.18109000  1.0 -0.4478376219
N  N17  1  0.64723000  0.03025000  0.07212000  1.0 -0.2412721375
N  N18  1  0.72743000  0.04186000  0.12431000  1.0 -0.166764064
N  N19  1  0.61453000  0.08353000  0.99364000  1.0 -0.3842587629
N  N20  1  0.75348000  0.18109000  0.01573000  1.0 -0.4478376219
N  N21  1  0.03025000  0.07212000  0.64723000  1.0 -0.2412721375
N  N22  1  0.04186000  0.12431000  0.72743000  1.0 -0.166764064
N  N23  1  0.08353000  0.99364000  0.61453000  1.0 -0.3842587629
N  N24  1  0.18109000  0.01573000  0.75348000  1.0 -0.4478376219
O  O1  1  0.71992000  0.27160000  0.94898000  1.0 -0.5423213252
O  O2  1  0.77892000  0.37152000  0.93076000  1.0 -0.5062881667
O  O3  1  0.17966000  0.00405000  0.54749000  1.0 -0.5423213252
O  O4  1  0.19377000  0.97867000  0.44356000  1.0 -0.5062881667
O  O5  1  0.90081000  0.09871000  0.77988000  1.0 -0.4331260213
O  O6  1  0.12333000  0.59017000  0.12880000  1.0 -0.3076041499
O  O7  1  0.27160000  0.94898000  0.71992000  1.0 -0.5423213252
O  O8  1  0.37152000  0.93076000  0.77892000  1.0 -0.5062881667
O  O9  1  0.00405000  0.54749000  0.17966000  1.0 -0.5423213252
O  O10  1  0.97867000  0.44356000  0.19377000  1.0 -0.5062881667
O  O11  1  0.09871000  0.77988000  0.90081000  1.0 -0.4331260213
O  O12  1  0.59017000  0.12880000  0.12333000  1.0 -0.3076041499
O  O13  1  0.94898000  0.71992000  0.27160000  1.0 -0.5423213252
O  O14  1  0.93076000  0.77892000  0.37152000  1.0 -0.5062881667
O  O15  1  0.54749000  0.17966000  0.00405000  1.0 -0.5423213252
O  O16  1  0.44356000  0.19377000  0.97867000  1.0 -0.5062881667
O  O17  1  0.77988000  0.90081000  0.09871000  1.0 -0.4370981762
O  O18  1  0.12880000  0.12333000  0.59017000  1.0 -0.3076041499
O  O19  1  0.28008000  0.72840000  0.05102000  1.0 -0.5423213252
O  O20  1  0.22108000  0.62848000  0.06924000  1.0 -0.5062881667
O  O21  1  0.82034000  0.99595000  0.45251000  1.0 -0.5423213252
O  O22  1  0.80623000  0.02133000  0.55644000  1.0 -0.5062881667
O  O23  1  0.09919000  0.90129000  0.22012000  1.0 -0.4331260213
O  O24  1  0.87667000  0.40983000  0.87120000  1.0 -0.3076041499
O  O25  1  0.72840000  0.05102000  0.28008000  1.0 -0.5423213252
O  O26  1  0.62848000  0.06924000  0.22108000  1.0 -0.5062881667
O  O27  1  0.99595000  0.45251000  0.82034000  1.0 -0.5423213252
O  O28  1  0.02133000  0.55644000  0.80623000  1.0 -0.5062881667
O  O29  1  0.90129000  0.22012000  0.09919000  1.0 -0.4331260213
O  O30  1  0.40983000  0.87120000  0.87667000  1.0 -0.3076041499
O  O31  1  0.05102000  0.28008000  0.72840000  1.0 -0.5423213252
O  O32  1  0.06924000  0.22108000  0.62848000  1.0 -0.5062881667
O  O33  1  0.45251000  0.82034000  0.99595000  1.0 -0.5423213252
O  O34  1  0.55644000  0.80623000  0.02133000  1.0 -0.5062881667
O  O35  1  0.22012000  0.09919000  0.90129000  1.0 -0.4331260213
O  O36  1  0.87120000  0.87667000  0.40983000  1.0 -0.3076041499
