# DDEC6 charges by PACMAN v1.1 (https://github.com/mtap-research/PACMAN-charge/)
data_WEVFOW_FSR_pacman
_symmetry_space_group_name_H-M   'P 1'
_cell_length_a   21.12000000
_cell_length_b   21.12000000
_cell_length_c   21.12000000
_cell_angle_alpha   116.29300000
_cell_angle_beta   116.29300000
_cell_angle_gamma   116.29300000
_symmetry_Int_Tables_number   1
_chemical_formula_structural   Co2H6C13(N2O3)2
_chemical_formula_sum   'Co12 H36 C78 N24 O36'
_cell_volume   4591.29255295
_cell_formula_units_Z   6
loop_
 _symmetry_equiv_pos_site_id
 _symmetry_equiv_pos_as_xyz
  1  'x, y, z'
loop_
 _atom_site_type_symbol
 _atom_site_label
 _atom_site_symmetry_multiplicity
 _atom_site_fract_x
 _atom_site_fract_y
 _atom_site_fract_z
 _atom_site_occupancy
 _atom_site_charge
Co  Co1  1  0.98755000  0.72130000  0.17598000  1.0 0.8042852001
Co  Co2  1  0.97861000  0.53355000  0.06508000  1.0 0.8671571132
Co  Co3  1  0.72130000  0.17598000  0.98755000  1.0 0.8042852001
Co  Co4  1  0.53355000  0.06508000  0.97861000  1.0 0.8671571132
Co  Co5  1  0.17598000  0.98755000  0.72130000  1.0 0.8042852001
Co  Co6  1  0.06508000  0.97861000  0.53355000  1.0 0.8671571132
Co  Co7  1  0.01245000  0.27870000  0.82402000  1.0 0.8042852001
Co  Co8  1  0.02139000  0.46645000  0.93492000  1.0 0.8671571132
Co  Co9  1  0.27870000  0.82402000  0.01245000  1.0 0.8042852001
Co  Co10  1  0.46645000  0.93492000  0.02139000  1.0 0.8671571132
Co  Co11  1  0.82402000  0.01245000  0.27870000  1.0 0.8042852001
Co  Co12  1  0.93492000  0.02139000  0.46645000  1.0 0.8671571132
H  H1  1  0.14750000  0.82220000  0.47430000  1.0 0.1179562519
H  H2  1  0.27690000  0.75110000  0.41300000  1.0 0.1281027032
H  H3  1  0.29060000  0.92570000  0.66150000  1.0 0.1179562519
H  H4  1  0.42960000  0.86900000  0.60590000  1.0 0.1281027032
H  H5  1  0.11180000  0.86290000  0.16000000  1.0 0.1281027032
H  H6  1  0.12910000  0.60930000  0.92920000  1.0 0.1132659991
H  H7  1  0.82220000  0.47430000  0.14750000  1.0 0.1179562519
H  H8  1  0.75110000  0.41300000  0.27690000  1.0 0.1281027032
H  H9  1  0.92570000  0.66150000  0.29060000  1.0 0.1179562519
H  H10  1  0.86900000  0.60590000  0.42960000  1.0 0.1281027032
H  H11  1  0.86290000  0.16000000  0.11180000  1.0 0.1281027032
H  H12  1  0.60930000  0.92920000  0.12910000  1.0 0.1132659991
H  H13  1  0.47430000  0.14750000  0.82220000  1.0 0.1179562519
H  H14  1  0.41300000  0.27690000  0.75110000  1.0 0.1281027032
H  H15  1  0.66150000  0.29060000  0.92570000  1.0 0.1179562519
H  H16  1  0.60590000  0.42960000  0.86900000  1.0 0.1281027032
H  H17  1  0.16000000  0.11180000  0.86290000  1.0 0.1281027032
H  H18  1  0.92920000  0.12910000  0.60930000  1.0 0.1132659991
H  H19  1  0.85250000  0.17780000  0.52570000  1.0 0.1179562519
H  H20  1  0.72310000  0.24890000  0.58700000  1.0 0.1281027032
H  H21  1  0.70940000  0.07430000  0.33850000  1.0 0.1179562519
H  H22  1  0.57040000  0.13100000  0.39410000  1.0 0.1281027032
H  H23  1  0.88820000  0.13710000  0.84000000  1.0 0.1281027032
H  H24  1  0.87090000  0.39070000  0.07080000  1.0 0.1132659991
H  H25  1  0.17780000  0.52570000  0.85250000  1.0 0.1179562519
H  H26  1  0.24890000  0.58700000  0.72310000  1.0 0.1281027032
H  H27  1  0.07430000  0.33850000  0.70940000  1.0 0.1179562519
H  H28  1  0.13100000  0.39410000  0.57040000  1.0 0.1281027032
H  H29  1  0.13710000  0.84000000  0.88820000  1.0 0.1281027032
H  H30  1  0.39070000  0.07080000  0.87090000  1.0 0.1132659991
H  H31  1  0.52570000  0.85250000  0.17780000  1.0 0.1179562519
H  H32  1  0.58700000  0.72310000  0.24890000  1.0 0.1281027032
H  H33  1  0.33850000  0.70940000  0.07430000  1.0 0.1179562519
H  H34  1  0.39410000  0.57040000  0.13100000  1.0 0.1281027032
H  H35  1  0.84000000  0.88820000  0.13710000  1.0 0.1281027032
H  H36  1  0.07080000  0.87090000  0.39070000  1.0 0.1132659991
C  C1  1  0.10952000  0.71323000  0.30655000  1.0 0.5841140366
C  C2  1  0.19905000  0.77780000  0.42575000  1.0 -0.0213756824
C  C3  1  0.20357000  0.82997000  0.50016000  1.0 -0.1056845569
C  C4  1  0.28185000  0.78980000  0.46475000  1.0 -0.1056845569
C  C5  1  0.47570000  0.98978000  0.77772000  1.0 0.5841140366
C  C6  1  0.37560000  0.90991000  0.65199000  1.0 -0.007674947
C  C7  1  0.28978000  0.89337000  0.61185000  1.0 -0.1022890591
C  C8  1  0.37133000  0.85803000  0.57854000  1.0 -0.1056845569
C  C9  1  0.09452000  0.80021000  0.12807000  1.0 0.0330024701
C  C10  1  0.11228000  0.76403000  0.07299000  1.0 -0.1593236013
C  C11  1  0.07490000  0.67135000  0.04285000  1.0 0.2883808779
C  C12  1  0.12523000  0.64936000  0.96801000  1.0 0.276729188
C  C13  1  0.16496000  0.80477000  0.05247000  1.0 0.5010537919
C  C14  1  0.71323000  0.30655000  0.10952000  1.0 0.5841140366
C  C15  1  0.77780000  0.42575000  0.19905000  1.0 -0.0213756824
C  C16  1  0.82997000  0.50016000  0.20357000  1.0 -0.1056845569
C  C17  1  0.78980000  0.46475000  0.28185000  1.0 -0.1056845569
C  C18  1  0.98978000  0.77772000  0.47570000  1.0 0.5841140366
C  C19  1  0.90991000  0.65199000  0.37560000  1.0 -0.007674947
C  C20  1  0.89337000  0.61185000  0.28978000  1.0 -0.1022890591
C  C21  1  0.85803000  0.57854000  0.37133000  1.0 -0.1056845569
C  C22  1  0.80021000  0.12807000  0.09452000  1.0 0.0330024701
C  C23  1  0.76403000  0.07299000  0.11228000  1.0 -0.1593236013
C  C24  1  0.67135000  0.04285000  0.07490000  1.0 0.2883808779
C  C25  1  0.64936000  0.96801000  0.12523000  1.0 0.276729188
C  C26  1  0.80477000  0.05247000  0.16496000  1.0 0.5010537919
C  C27  1  0.30655000  0.10952000  0.71323000  1.0 0.5841140366
C  C28  1  0.42575000  0.19905000  0.77780000  1.0 -0.0213756824
C  C29  1  0.50016000  0.20357000  0.82997000  1.0 -0.1056845569
C  C30  1  0.46475000  0.28185000  0.78980000  1.0 -0.1056845569
C  C31  1  0.77772000  0.47570000  0.98978000  1.0 0.5841140366
C  C32  1  0.65199000  0.37560000  0.90991000  1.0 -0.007674947
C  C33  1  0.61185000  0.28978000  0.89337000  1.0 -0.1022890591
C  C34  1  0.57854000  0.37133000  0.85803000  1.0 -0.1056845569
C  C35  1  0.12807000  0.09452000  0.80021000  1.0 0.0330024701
C  C36  1  0.07299000  0.11228000  0.76403000  1.0 -0.1593236013
C  C37  1  0.04285000  0.07490000  0.67135000  1.0 0.2883808779
C  C38  1  0.96801000  0.12523000  0.64936000  1.0 0.276729188
C  C39  1  0.05247000  0.16496000  0.80477000  1.0 0.5010537919
C  C40  1  0.89048000  0.28677000  0.69345000  1.0 0.5841140366
C  C41  1  0.80095000  0.22220000  0.57425000  1.0 -0.0213756824
C  C42  1  0.79643000  0.17003000  0.49984000  1.0 -0.1056845569
C  C43  1  0.71815000  0.21020000  0.53525000  1.0 -0.1056845569
C  C44  1  0.52430000  0.01022000  0.22228000  1.0 0.5841140366
C  C45  1  0.62440000  0.09009000  0.34801000  1.0 -0.007674947
C  C46  1  0.71022000  0.10663000  0.38815000  1.0 -0.1022890591
C  C47  1  0.62867000  0.14197000  0.42146000  1.0 -0.1056845569
C  C48  1  0.90548000  0.19979000  0.87193000  1.0 0.0330024701
C  C49  1  0.88772000  0.23597000  0.92701000  1.0 -0.1593236013
C  C50  1  0.92510000  0.32865000  0.95715000  1.0 0.2883808779
C  C51  1  0.87477000  0.35064000  0.03199000  1.0 0.276729188
C  C52  1  0.83504000  0.19523000  0.94753000  1.0 0.5010537919
C  C53  1  0.28677000  0.69345000  0.89048000  1.0 0.5841140366
C  C54  1  0.22220000  0.57425000  0.80095000  1.0 -0.0213756824
C  C55  1  0.17003000  0.49984000  0.79643000  1.0 -0.1056845569
C  C56  1  0.21020000  0.53525000  0.71815000  1.0 -0.1056845569
C  C57  1  0.01022000  0.22228000  0.52430000  1.0 0.5841140366
C  C58  1  0.09009000  0.34801000  0.62440000  1.0 -0.007674947
C  C59  1  0.10663000  0.38815000  0.71022000  1.0 -0.1022890591
C  C60  1  0.14197000  0.42146000  0.62867000  1.0 -0.1056845569
C  C61  1  0.19979000  0.87193000  0.90548000  1.0 0.0330024701
C  C62  1  0.23597000  0.92701000  0.88772000  1.0 -0.1593236013
C  C63  1  0.32865000  0.95715000  0.92510000  1.0 0.2883808779
C  C64  1  0.35064000  0.03199000  0.87477000  1.0 0.276729188
C  C65  1  0.19523000  0.94753000  0.83504000  1.0 0.5010537919
C  C66  1  0.69345000  0.89048000  0.28677000  1.0 0.5841140366
C  C67  1  0.57425000  0.80095000  0.22220000  1.0 -0.0213756824
C  C68  1  0.49984000  0.79643000  0.17003000  1.0 -0.1056845569
C  C69  1  0.53525000  0.71815000  0.21020000  1.0 -0.1056845569
C  C70  1  0.22228000  0.52430000  0.01022000  1.0 0.5841140366
C  C71  1  0.34801000  0.62440000  0.09009000  1.0 -0.007674947
C  C72  1  0.38815000  0.71022000  0.10663000  1.0 -0.1022890591
C  C73  1  0.42146000  0.62867000  0.14197000  1.0 -0.1056845569
C  C74  1  0.87193000  0.90548000  0.19979000  1.0 0.0330024701
C  C75  1  0.92701000  0.88772000  0.23597000  1.0 -0.1593236013
C  C76  1  0.95715000  0.92510000  0.32865000  1.0 0.2883808779
C  C77  1  0.03199000  0.87477000  0.35064000  1.0 0.276729188
C  C78  1  0.94753000  0.83504000  0.19523000  1.0 0.5010537919
N  N1  1  0.04917000  0.73252000  0.12861000  1.0 -0.1933627509
N  N2  1  0.03624000  0.65096000  0.07550000  1.0 -0.2674521787
N  N3  1  0.16838000  0.74055000  0.99807000  1.0 -0.4266963585
N  N4  1  0.07777000  0.60858000  0.98575000  1.0 -0.3248611672
N  N5  1  0.73252000  0.12861000  0.04917000  1.0 -0.1933627509
N  N6  1  0.65096000  0.07550000  0.03624000  1.0 -0.2674521787
N  N7  1  0.74055000  0.99807000  0.16838000  1.0 -0.4266963585
N  N8  1  0.60858000  0.98575000  0.07777000  1.0 -0.3262033625
N  N9  1  0.12861000  0.04917000  0.73252000  1.0 -0.1933627509
N  N10  1  0.07550000  0.03624000  0.65096000  1.0 -0.2674521787
N  N11  1  0.99807000  0.16838000  0.74055000  1.0 -0.4266963585
N  N12  1  0.98575000  0.07777000  0.60858000  1.0 -0.3262033625
N  N13  1  0.95083000  0.26748000  0.87139000  1.0 -0.1933627509
N  N14  1  0.96376000  0.34904000  0.92450000  1.0 -0.2674521787
N  N15  1  0.83162000  0.25945000  0.00193000  1.0 -0.4266963585
N  N16  1  0.92223000  0.39142000  0.01425000  1.0 -0.3262033625
N  N17  1  0.26748000  0.87139000  0.95083000  1.0 -0.1933627509
N  N18  1  0.34904000  0.92450000  0.96376000  1.0 -0.2674521787
N  N19  1  0.25945000  0.00193000  0.83162000  1.0 -0.4266963585
N  N20  1  0.39142000  0.01425000  0.92223000  1.0 -0.3262033625
N  N21  1  0.87139000  0.95083000  0.26748000  1.0 -0.1933627509
N  N22  1  0.92450000  0.96376000  0.34904000  1.0 -0.2674521787
N  N23  1  0.00193000  0.83162000  0.25945000  1.0 -0.4266963585
N  N24  1  0.01425000  0.92223000  0.39142000  1.0 -0.3262033625
O  O1  1  0.06219000  0.73530000  0.28891000  1.0 -0.5413185292
O  O2  1  0.08963000  0.64363000  0.23374000  1.0 -0.5135652605
O  O3  1  0.56905000  0.03466000  0.81949000  1.0 -0.5238470478
O  O4  1  0.46236000  0.00796000  0.83258000  1.0 -0.5413185292
O  O5  1  0.20584000  0.88751000  0.07795000  1.0 -0.4470514221
O  O6  1  0.87214000  0.41330000  0.88296000  1.0 -0.2874701751
O  O7  1  0.73530000  0.28891000  0.06219000  1.0 -0.5413185292
O  O8  1  0.64363000  0.23374000  0.08963000  1.0 -0.5135652605
O  O9  1  0.03466000  0.81949000  0.56905000  1.0 -0.5238470478
O  O10  1  0.00796000  0.83258000  0.46236000  1.0 -0.5413185292
O  O11  1  0.88751000  0.07795000  0.20584000  1.0 -0.4470514221
O  O12  1  0.41330000  0.88296000  0.87214000  1.0 -0.2826610936
O  O13  1  0.28891000  0.06219000  0.73530000  1.0 -0.5413185292
O  O14  1  0.23374000  0.08963000  0.64363000  1.0 -0.5135652605
O  O15  1  0.81949000  0.56905000  0.03466000  1.0 -0.5251552744
O  O16  1  0.83258000  0.46236000  0.00796000  1.0 -0.5413185292
O  O17  1  0.07795000  0.20584000  0.88751000  1.0 -0.4470514221
O  O18  1  0.88296000  0.87214000  0.41330000  1.0 -0.2826610936
O  O19  1  0.93781000  0.26470000  0.71109000  1.0 -0.5413185292
O  O20  1  0.91037000  0.35637000  0.76626000  1.0 -0.5135652605
O  O21  1  0.43095000  0.96534000  0.18051000  1.0 -0.5238470478
O  O22  1  0.53764000  0.99204000  0.16742000  1.0 -0.5413185292
O  O23  1  0.79416000  0.11249000  0.92205000  1.0 -0.4470514221
O  O24  1  0.12786000  0.58670000  0.11704000  1.0 -0.2826610936
O  O25  1  0.26470000  0.71109000  0.93781000  1.0 -0.5413185292
O  O26  1  0.35637000  0.76626000  0.91037000  1.0 -0.5135652605
O  O27  1  0.96534000  0.18051000  0.43095000  1.0 -0.5238470478
O  O28  1  0.99204000  0.16742000  0.53764000  1.0 -0.5413185292
O  O29  1  0.11249000  0.92205000  0.79416000  1.0 -0.4470514221
O  O30  1  0.58670000  0.11704000  0.12786000  1.0 -0.2826610936
O  O31  1  0.71109000  0.93781000  0.26470000  1.0 -0.5413185292
O  O32  1  0.76626000  0.91037000  0.35637000  1.0 -0.5135652605
O  O33  1  0.18051000  0.43095000  0.96534000  1.0 -0.5238470478
O  O34  1  0.16742000  0.53764000  0.99204000  1.0 -0.5413185292
O  O35  1  0.92205000  0.79416000  0.11249000  1.0 -0.4442462308
O  O36  1  0.11704000  0.12786000  0.58670000  1.0 -0.2874701751
