# DDEC6 charges by PACMAN v1.1 (https://github.com/mtap-research/PACMAN-charge/)
data_WEVQOD01_ASR_pacman
_symmetry_space_group_name_H-M   'P 1'
_cell_length_a   14.47830000
_cell_length_b   14.47830000
_cell_length_c   15.29300000
_cell_angle_alpha   90.00000000
_cell_angle_beta   90.00000000
_cell_angle_gamma   120.00000000
_symmetry_Int_Tables_number   1
_chemical_formula_structural   Gd2Cu3H24(C4O5)6
_chemical_formula_sum   'Gd4 Cu6 H48 C48 O60'
_cell_volume   2776.24930436
_cell_formula_units_Z   2
loop_
 _symmetry_equiv_pos_site_id
 _symmetry_equiv_pos_as_xyz
  1  'x, y, z'
loop_
 _atom_site_type_symbol
 _atom_site_label
 _atom_site_symmetry_multiplicity
 _atom_site_fract_x
 _atom_site_fract_y
 _atom_site_fract_z
 _atom_site_occupancy
 _atom_site_charge
Gd  Gd1  1  0.66666667  0.33333333  0.25000000  1.0 1.8891058621
Gd  Gd2  1  0.33333333  0.66666667  0.25000000  1.0 1.8891058621
Gd  Gd3  1  0.33333333  0.66666667  0.75000000  1.0 1.8891058621
Gd  Gd4  1  0.66666667  0.33333333  0.75000000  1.0 1.8891058621
Cu  Cu1  1  0.00000000  0.50000000  0.00000000  1.0 0.8303548155
Cu  Cu2  1  0.50000000  0.50000000  0.00000000  1.0 0.8303548155
Cu  Cu3  1  0.50000000  0.00000000  0.00000000  1.0 0.8303548155
Cu  Cu4  1  0.50000000  0.00000000  0.50000000  1.0 0.8303548155
Cu  Cu5  1  0.50000000  0.50000000  0.50000000  1.0 0.8303548155
Cu  Cu6  1  0.00000000  0.50000000  0.50000000  1.0 0.8303548155
H  H1  1  0.84010000  0.19760000  0.15910000  1.0 0.137124708
H  H2  1  0.80240000  0.64250000  0.15910000  1.0 0.137124708
H  H3  1  0.35750000  0.15990000  0.15910000  1.0 0.137124708
H  H4  1  0.15990000  0.80240000  0.15910000  1.0 0.137124708
H  H5  1  0.19760000  0.35750000  0.15910000  1.0 0.137124708
H  H6  1  0.64250000  0.84010000  0.15910000  1.0 0.137124708
H  H7  1  0.19760000  0.84010000  0.34090000  1.0 0.137124708
H  H8  1  0.64250000  0.80240000  0.34090000  1.0 0.137124708
H  H9  1  0.15990000  0.35750000  0.34090000  1.0 0.137124708
H  H10  1  0.80240000  0.15990000  0.34090000  1.0 0.137124708
H  H11  1  0.35750000  0.19760000  0.34090000  1.0 0.137124708
H  H12  1  0.84010000  0.64250000  0.34090000  1.0 0.137124708
H  H13  1  0.15990000  0.80240000  0.84090000  1.0 0.137124708
H  H14  1  0.19760000  0.35750000  0.84090000  1.0 0.137124708
H  H15  1  0.64250000  0.84010000  0.84090000  1.0 0.137124708
H  H16  1  0.84010000  0.19760000  0.84090000  1.0 0.137124708
H  H17  1  0.80240000  0.64250000  0.84090000  1.0 0.137124708
H  H18  1  0.35750000  0.15990000  0.84090000  1.0 0.137124708
H  H19  1  0.80240000  0.15990000  0.65910000  1.0 0.137124708
H  H20  1  0.35750000  0.19760000  0.65910000  1.0 0.137124708
H  H21  1  0.84010000  0.64250000  0.65910000  1.0 0.137124708
H  H22  1  0.19760000  0.84010000  0.65910000  1.0 0.137124708
H  H23  1  0.64250000  0.80240000  0.65910000  1.0 0.137124708
H  H24  1  0.15990000  0.35750000  0.65910000  1.0 0.137124708
H  H25  1  0.91870000  0.28080000  0.23120000  1.0 0.1164662669
H  H26  1  0.71920000  0.63790000  0.23120000  1.0 0.1164662669
H  H27  1  0.36210000  0.08130000  0.23120000  1.0 0.1164662669
H  H28  1  0.08130000  0.71920000  0.23120000  1.0 0.1164662669
H  H29  1  0.28080000  0.36210000  0.23120000  1.0 0.1164662669
H  H30  1  0.63790000  0.91870000  0.23120000  1.0 0.1164662669
H  H31  1  0.28080000  0.91870000  0.26880000  1.0 0.1164662669
H  H32  1  0.63790000  0.71920000  0.26880000  1.0 0.1164662669
H  H33  1  0.08130000  0.36210000  0.26880000  1.0 0.1164662669
H  H34  1  0.71920000  0.08130000  0.26880000  1.0 0.1164662669
H  H35  1  0.36210000  0.28080000  0.26880000  1.0 0.1164662669
H  H36  1  0.91870000  0.63790000  0.26880000  1.0 0.1164662669
H  H37  1  0.08130000  0.71920000  0.76880000  1.0 0.1164662669
H  H38  1  0.28080000  0.36210000  0.76880000  1.0 0.1164662669
H  H39  1  0.63790000  0.91870000  0.76880000  1.0 0.1164662669
H  H40  1  0.91870000  0.28080000  0.76880000  1.0 0.1164662669
H  H41  1  0.71920000  0.63790000  0.76880000  1.0 0.1164662669
H  H42  1  0.36210000  0.08130000  0.76880000  1.0 0.1164662669
H  H43  1  0.71920000  0.08130000  0.73120000  1.0 0.1164662669
H  H44  1  0.36210000  0.28080000  0.73120000  1.0 0.1164662669
H  H45  1  0.91870000  0.63790000  0.73120000  1.0 0.1164662669
H  H46  1  0.28080000  0.91870000  0.73120000  1.0 0.1164662669
H  H47  1  0.63790000  0.71920000  0.73120000  1.0 0.1164662669
H  H48  1  0.08130000  0.36210000  0.73120000  1.0 0.1164662669
C  C1  1  0.86890000  0.35240000  0.13810000  1.0 0.6297996052
C  C2  1  0.64760000  0.51650000  0.13810000  1.0 0.6297996052
C  C3  1  0.48350000  0.13110000  0.13810000  1.0 0.6297996052
C  C4  1  0.13110000  0.64760000  0.13810000  1.0 0.6297996052
C  C5  1  0.35240000  0.48350000  0.13810000  1.0 0.6297996052
C  C6  1  0.51650000  0.86890000  0.13810000  1.0 0.6297996052
C  C7  1  0.35240000  0.86890000  0.36190000  1.0 0.6297996052
C  C8  1  0.51650000  0.64760000  0.36190000  1.0 0.6297996052
C  C9  1  0.13110000  0.48350000  0.36190000  1.0 0.6297996052
C  C10  1  0.64760000  0.13110000  0.36190000  1.0 0.6297996052
C  C11  1  0.48350000  0.35240000  0.36190000  1.0 0.6297996052
C  C12  1  0.86890000  0.51650000  0.36190000  1.0 0.6297996052
C  C13  1  0.13110000  0.64760000  0.86190000  1.0 0.6297996052
C  C14  1  0.35240000  0.48350000  0.86190000  1.0 0.6297996052
C  C15  1  0.51650000  0.86890000  0.86190000  1.0 0.6297996052
C  C16  1  0.86890000  0.35240000  0.86190000  1.0 0.6297996052
C  C17  1  0.64760000  0.51650000  0.86190000  1.0 0.6297996052
C  C18  1  0.48350000  0.13110000  0.86190000  1.0 0.6297996052
C  C19  1  0.64760000  0.13110000  0.63810000  1.0 0.6297996052
C  C20  1  0.48350000  0.35240000  0.63810000  1.0 0.6297996052
C  C21  1  0.86890000  0.51650000  0.63810000  1.0 0.6297996052
C  C22  1  0.35240000  0.86890000  0.63810000  1.0 0.6297996052
C  C23  1  0.51650000  0.64760000  0.63810000  1.0 0.6297996052
C  C24  1  0.13110000  0.48350000  0.63810000  1.0 0.6297996052
C  C25  1  0.85410000  0.25990000  0.19540000  1.0 -0.1663553298
C  C26  1  0.74010000  0.59420000  0.19540000  1.0 -0.1663553298
C  C27  1  0.40580000  0.14590000  0.19540000  1.0 -0.1663553298
C  C28  1  0.14590000  0.74010000  0.19540000  1.0 -0.1663553298
C  C29  1  0.25990000  0.40580000  0.19540000  1.0 -0.1663553298
C  C30  1  0.59420000  0.85410000  0.19540000  1.0 -0.1663553298
C  C31  1  0.25990000  0.85410000  0.30460000  1.0 -0.1663553298
C  C32  1  0.59420000  0.74010000  0.30460000  1.0 -0.1663553298
C  C33  1  0.14590000  0.40580000  0.30460000  1.0 -0.1663553298
C  C34  1  0.74010000  0.14590000  0.30460000  1.0 -0.1663553298
C  C35  1  0.40580000  0.25990000  0.30460000  1.0 -0.1663553298
C  C36  1  0.85410000  0.59420000  0.30460000  1.0 -0.1663553298
C  C37  1  0.14590000  0.74010000  0.80460000  1.0 -0.1663553298
C  C38  1  0.25990000  0.40580000  0.80460000  1.0 -0.1663553298
C  C39  1  0.59420000  0.85410000  0.80460000  1.0 -0.1663553298
C  C40  1  0.85410000  0.25990000  0.80460000  1.0 -0.1663553298
C  C41  1  0.74010000  0.59420000  0.80460000  1.0 -0.1663553298
C  C42  1  0.40580000  0.14590000  0.80460000  1.0 -0.1663553298
C  C43  1  0.74010000  0.14590000  0.69540000  1.0 -0.1663553298
C  C44  1  0.40580000  0.25990000  0.69540000  1.0 -0.1663553298
C  C45  1  0.85410000  0.59420000  0.69540000  1.0 -0.1663553298
C  C46  1  0.25990000  0.85410000  0.69540000  1.0 -0.1663553298
C  C47  1  0.59420000  0.74010000  0.69540000  1.0 -0.1663553298
C  C48  1  0.14590000  0.40580000  0.69540000  1.0 -0.1663553298
O  O1  1  0.94670000  0.38650000  0.08990000  1.0 -0.5246343903
O  O2  1  0.61350000  0.56020000  0.08990000  1.0 -0.5246343903
O  O3  1  0.43980000  0.05330000  0.08990000  1.0 -0.5246343903
O  O4  1  0.05330000  0.61350000  0.08990000  1.0 -0.5246343903
O  O5  1  0.38650000  0.43980000  0.08990000  1.0 -0.5246343903
O  O6  1  0.56020000  0.94670000  0.08990000  1.0 -0.5246343903
O  O7  1  0.38650000  0.94670000  0.41010000  1.0 -0.5246343903
O  O8  1  0.56020000  0.61350000  0.41010000  1.0 -0.5246343903
O  O9  1  0.05330000  0.43980000  0.41010000  1.0 -0.5246343903
O  O10  1  0.61350000  0.05330000  0.41010000  1.0 -0.5246343903
O  O11  1  0.43980000  0.38650000  0.41010000  1.0 -0.5246343903
O  O12  1  0.94670000  0.56020000  0.41010000  1.0 -0.5246343903
O  O13  1  0.05330000  0.61350000  0.91010000  1.0 -0.5246343903
O  O14  1  0.38650000  0.43980000  0.91010000  1.0 -0.5246343903
O  O15  1  0.56020000  0.94670000  0.91010000  1.0 -0.5246343903
O  O16  1  0.94670000  0.38650000  0.91010000  1.0 -0.5246343903
O  O17  1  0.61350000  0.56020000  0.91010000  1.0 -0.5246343903
O  O18  1  0.43980000  0.05330000  0.91010000  1.0 -0.5246343903
O  O19  1  0.61350000  0.05330000  0.58990000  1.0 -0.5246343903
O  O20  1  0.43980000  0.38650000  0.58990000  1.0 -0.5246343903
O  O21  1  0.94670000  0.56020000  0.58990000  1.0 -0.5246343903
O  O22  1  0.38650000  0.94670000  0.58990000  1.0 -0.5246343903
O  O23  1  0.56020000  0.61350000  0.58990000  1.0 -0.5246343903
O  O24  1  0.05330000  0.43980000  0.58990000  1.0 -0.5246343903
O  O25  1  0.80580000  0.38620000  0.14440000  1.0 -0.5969165805
O  O26  1  0.61380000  0.41960000  0.14440000  1.0 -0.5969165805
O  O27  1  0.58040000  0.19420000  0.14440000  1.0 -0.5969165805
O  O28  1  0.19420000  0.61380000  0.14440000  1.0 -0.5969165805
O  O29  1  0.38620000  0.58040000  0.14440000  1.0 -0.5969165805
O  O30  1  0.41960000  0.80580000  0.14440000  1.0 -0.5969165805
O  O31  1  0.38620000  0.80580000  0.35560000  1.0 -0.5969165805
O  O32  1  0.41960000  0.61380000  0.35560000  1.0 -0.5969165805
O  O33  1  0.19420000  0.58040000  0.35560000  1.0 -0.5969165805
O  O34  1  0.61380000  0.19420000  0.35560000  1.0 -0.5969165805
O  O35  1  0.58040000  0.38620000  0.35560000  1.0 -0.5969165805
O  O36  1  0.80580000  0.41960000  0.35560000  1.0 -0.5969165805
O  O37  1  0.19420000  0.61380000  0.85560000  1.0 -0.5969165805
O  O38  1  0.38620000  0.58040000  0.85560000  1.0 -0.5969165805
O  O39  1  0.41960000  0.80580000  0.85560000  1.0 -0.5969165805
O  O40  1  0.80580000  0.38620000  0.85560000  1.0 -0.5969165805
O  O41  1  0.61380000  0.41960000  0.85560000  1.0 -0.5969165805
O  O42  1  0.58040000  0.19420000  0.85560000  1.0 -0.5969165805
O  O43  1  0.61380000  0.19420000  0.64440000  1.0 -0.5969165805
O  O44  1  0.58040000  0.38620000  0.64440000  1.0 -0.5969165805
O  O45  1  0.80580000  0.41960000  0.64440000  1.0 -0.5969165805
O  O46  1  0.38620000  0.80580000  0.64440000  1.0 -0.5969165805
O  O47  1  0.41960000  0.61380000  0.64440000  1.0 -0.5969165805
O  O48  1  0.19420000  0.58040000  0.64440000  1.0 -0.5969165805
O  O49  1  0.76480000  0.23520000  0.25000000  1.0 -0.2358479207
O  O50  1  0.76480000  0.52960000  0.25000000  1.0 -0.2358479207
O  O51  1  0.47040000  0.23520000  0.25000000  1.0 -0.2358479207
O  O52  1  0.23520000  0.76480000  0.25000000  1.0 -0.2358479207
O  O53  1  0.23520000  0.47040000  0.25000000  1.0 -0.2358479207
O  O54  1  0.52960000  0.76480000  0.25000000  1.0 -0.2358479207
O  O55  1  0.23520000  0.76480000  0.75000000  1.0 -0.2358479207
O  O56  1  0.23520000  0.47040000  0.75000000  1.0 -0.2358479207
O  O57  1  0.52960000  0.76480000  0.75000000  1.0 -0.2358479207
O  O58  1  0.76480000  0.23520000  0.75000000  1.0 -0.2358479207
O  O59  1  0.76480000  0.52960000  0.75000000  1.0 -0.2358479207
O  O60  1  0.47040000  0.23520000  0.75000000  1.0 -0.2358479207
