# DDEC6 charges by PACMAN v1.1 (https://github.com/mtap-research/PACMAN-charge/)
data_WEVQOD_ASR_pacman
_symmetry_space_group_name_H-M   'P 1'
_cell_length_a   14.71700000
_cell_length_b   14.71700000
_cell_length_c   15.16900000
_cell_angle_alpha   90.00000000
_cell_angle_beta   90.00000000
_cell_angle_gamma   120.00000000
_symmetry_Int_Tables_number   1
_chemical_formula_structural   Gd2Cu3H24(C4O5)6
_chemical_formula_sum   'Gd4 Cu6 H48 C48 O60'
_cell_volume   2845.28754499
_cell_formula_units_Z   2
loop_
 _symmetry_equiv_pos_site_id
 _symmetry_equiv_pos_as_xyz
  1  'x, y, z'
loop_
 _atom_site_type_symbol
 _atom_site_label
 _atom_site_symmetry_multiplicity
 _atom_site_fract_x
 _atom_site_fract_y
 _atom_site_fract_z
 _atom_site_occupancy
 _atom_site_charge
Gd  Gd1  1  0.66666667  0.33333333  0.75000000  1.0 1.8856852283
Gd  Gd2  1  0.33333333  0.66666667  0.75000000  1.0 1.8856852283
Gd  Gd3  1  0.33333333  0.66666667  0.25000000  1.0 1.8856852283
Gd  Gd4  1  0.66666667  0.33333333  0.25000000  1.0 1.8856852283
Cu  Cu1  1  0.50000000  0.00000000  0.00000000  1.0 0.8969056239
Cu  Cu2  1  0.00000000  0.50000000  0.00000000  1.0 0.8969056239
Cu  Cu3  1  0.50000000  0.50000000  0.00000000  1.0 0.8969056239
Cu  Cu4  1  0.00000000  0.50000000  0.50000000  1.0 0.8969056239
Cu  Cu5  1  0.50000000  0.00000000  0.50000000  1.0 0.8969056239
Cu  Cu6  1  0.50000000  0.50000000  0.50000000  1.0 0.8969056239
H  H1  1  0.20570000  0.36450000  0.16040000  1.0 0.140161377
H  H2  1  0.63550000  0.84120000  0.16040000  1.0 0.140161377
H  H3  1  0.15880000  0.79430000  0.16040000  1.0 0.140161377
H  H4  1  0.36450000  0.15880000  0.16040000  1.0 0.140161377
H  H5  1  0.84120000  0.20570000  0.16040000  1.0 0.140161377
H  H6  1  0.36450000  0.20570000  0.33960000  1.0 0.140161377
H  H7  1  0.84120000  0.63550000  0.33960000  1.0 0.140161377
H  H8  1  0.79430000  0.15880000  0.33960000  1.0 0.140161377
H  H9  1  0.63550000  0.79430000  0.33960000  1.0 0.140161377
H  H10  1  0.15880000  0.36450000  0.33960000  1.0 0.140161377
H  H11  1  0.20570000  0.84120000  0.33960000  1.0 0.140161377
H  H12  1  0.79430000  0.63550000  0.16040000  1.0 0.140161377
H  H13  1  0.79430000  0.63550000  0.83960000  1.0 0.140161377
H  H14  1  0.36450000  0.15880000  0.83960000  1.0 0.140161377
H  H15  1  0.84120000  0.20570000  0.83960000  1.0 0.140161377
H  H16  1  0.63550000  0.84120000  0.83960000  1.0 0.140161377
H  H17  1  0.15880000  0.79430000  0.83960000  1.0 0.140161377
H  H18  1  0.63550000  0.79430000  0.66040000  1.0 0.140161377
H  H19  1  0.15880000  0.36450000  0.66040000  1.0 0.140161377
H  H20  1  0.20570000  0.84120000  0.66040000  1.0 0.140161377
H  H21  1  0.36450000  0.20570000  0.66040000  1.0 0.140161377
H  H22  1  0.84120000  0.63550000  0.66040000  1.0 0.140161377
H  H23  1  0.79430000  0.15880000  0.66040000  1.0 0.140161377
H  H24  1  0.20570000  0.36450000  0.83960000  1.0 0.140161377
H  H25  1  0.28480000  0.37120000  0.23330000  1.0 0.1237225823
H  H26  1  0.62880000  0.91360000  0.23330000  1.0 0.1237225823
H  H27  1  0.08640000  0.71520000  0.23330000  1.0 0.1237225823
H  H28  1  0.37120000  0.08640000  0.23330000  1.0 0.1237225823
H  H29  1  0.91360000  0.28480000  0.23330000  1.0 0.1237225823
H  H30  1  0.37120000  0.28480000  0.26670000  1.0 0.1237225823
H  H31  1  0.91360000  0.62880000  0.26670000  1.0 0.1237225823
H  H32  1  0.71520000  0.08640000  0.26670000  1.0 0.1237225823
H  H33  1  0.62880000  0.71520000  0.26670000  1.0 0.1237225823
H  H34  1  0.08640000  0.37120000  0.26670000  1.0 0.1237225823
H  H35  1  0.28480000  0.91360000  0.26670000  1.0 0.1237225823
H  H36  1  0.71520000  0.62880000  0.23330000  1.0 0.1237225823
H  H37  1  0.71520000  0.62880000  0.76670000  1.0 0.1237225823
H  H38  1  0.37120000  0.08640000  0.76670000  1.0 0.1237225823
H  H39  1  0.91360000  0.28480000  0.76670000  1.0 0.1237225823
H  H40  1  0.62880000  0.91360000  0.76670000  1.0 0.1237225823
H  H41  1  0.08640000  0.71520000  0.76670000  1.0 0.1237225823
H  H42  1  0.62880000  0.71520000  0.73330000  1.0 0.1237225823
H  H43  1  0.08640000  0.37120000  0.73330000  1.0 0.1237225823
H  H44  1  0.28480000  0.91360000  0.73330000  1.0 0.1237225823
H  H45  1  0.37120000  0.28480000  0.73330000  1.0 0.1237225823
H  H46  1  0.91360000  0.62880000  0.73330000  1.0 0.1237225823
H  H47  1  0.71520000  0.08640000  0.73330000  1.0 0.1237225823
H  H48  1  0.28480000  0.37120000  0.76670000  1.0 0.1237225823
C  C1  1  0.87040000  0.51510000  0.63900000  1.0 0.629542776
C  C2  1  0.48490000  0.35530000  0.63900000  1.0 0.629542776
C  C3  1  0.64470000  0.12960000  0.63900000  1.0 0.629542776
C  C4  1  0.51510000  0.64470000  0.63900000  1.0 0.629542776
C  C5  1  0.35530000  0.87040000  0.63900000  1.0 0.629542776
C  C6  1  0.51510000  0.87040000  0.86100000  1.0 0.629542776
C  C7  1  0.35530000  0.48490000  0.86100000  1.0 0.629542776
C  C8  1  0.12960000  0.64470000  0.86100000  1.0 0.629542776
C  C9  1  0.48490000  0.12960000  0.86100000  1.0 0.629542776
C  C10  1  0.64470000  0.51510000  0.86100000  1.0 0.629542776
C  C11  1  0.87040000  0.35530000  0.86100000  1.0 0.629542776
C  C12  1  0.12960000  0.48490000  0.63900000  1.0 0.629542776
C  C13  1  0.12960000  0.48490000  0.36100000  1.0 0.629542776
C  C14  1  0.51510000  0.64470000  0.36100000  1.0 0.629542776
C  C15  1  0.35530000  0.87040000  0.36100000  1.0 0.629542776
C  C16  1  0.48490000  0.35530000  0.36100000  1.0 0.629542776
C  C17  1  0.64470000  0.12960000  0.36100000  1.0 0.629542776
C  C18  1  0.48490000  0.12960000  0.13900000  1.0 0.629542776
C  C19  1  0.64470000  0.51510000  0.13900000  1.0 0.629542776
C  C20  1  0.87040000  0.35530000  0.13900000  1.0 0.629542776
C  C21  1  0.51510000  0.87040000  0.13900000  1.0 0.629542776
C  C22  1  0.35530000  0.48490000  0.13900000  1.0 0.629542776
C  C23  1  0.12960000  0.64470000  0.13900000  1.0 0.629542776
C  C24  1  0.87040000  0.51510000  0.36100000  1.0 0.629542776
C  C25  1  0.14760000  0.41230000  0.30330000  1.0 -0.1665595349
C  C26  1  0.58770000  0.73530000  0.30330000  1.0 -0.1665595349
C  C27  1  0.26470000  0.85240000  0.30330000  1.0 -0.1665595349
C  C28  1  0.41230000  0.26470000  0.30330000  1.0 -0.1665595349
C  C29  1  0.73530000  0.14760000  0.30330000  1.0 -0.1665595349
C  C30  1  0.41230000  0.14760000  0.19670000  1.0 -0.1665595349
C  C31  1  0.73530000  0.58770000  0.19670000  1.0 -0.1665595349
C  C32  1  0.85240000  0.26470000  0.19670000  1.0 -0.1665595349
C  C33  1  0.58770000  0.85240000  0.19670000  1.0 -0.1665595349
C  C34  1  0.26470000  0.41230000  0.19670000  1.0 -0.1665595349
C  C35  1  0.14760000  0.73530000  0.19670000  1.0 -0.1665595349
C  C36  1  0.85240000  0.58770000  0.30330000  1.0 -0.1665595349
C  C37  1  0.85240000  0.58770000  0.69670000  1.0 -0.1665595349
C  C38  1  0.41230000  0.26470000  0.69670000  1.0 -0.1665595349
C  C39  1  0.73530000  0.14760000  0.69670000  1.0 -0.1665595349
C  C40  1  0.58770000  0.73530000  0.69670000  1.0 -0.1665595349
C  C41  1  0.26470000  0.85240000  0.69670000  1.0 -0.1665595349
C  C42  1  0.58770000  0.85240000  0.80330000  1.0 -0.1665595349
C  C43  1  0.26470000  0.41230000  0.80330000  1.0 -0.1665595349
C  C44  1  0.14760000  0.73530000  0.80330000  1.0 -0.1665595349
C  C45  1  0.41230000  0.14760000  0.80330000  1.0 -0.1665595349
C  C46  1  0.73530000  0.58770000  0.80330000  1.0 -0.1665595349
C  C47  1  0.85240000  0.26470000  0.80330000  1.0 -0.1665595349
C  C48  1  0.14760000  0.41230000  0.69670000  1.0 -0.1665595349
O  O1  1  0.80590000  0.41894000  0.64342000  1.0 -0.6094342117
O  O2  1  0.58106000  0.38696000  0.64342000  1.0 -0.6094342117
O  O3  1  0.61304000  0.19410000  0.64342000  1.0 -0.6094342117
O  O4  1  0.41894000  0.61304000  0.64342000  1.0 -0.6094342117
O  O5  1  0.38696000  0.80590000  0.64342000  1.0 -0.6094342117
O  O6  1  0.41894000  0.80590000  0.85658000  1.0 -0.6094342117
O  O7  1  0.38696000  0.58106000  0.85658000  1.0 -0.6094342117
O  O8  1  0.19410000  0.61304000  0.85658000  1.0 -0.6094342117
O  O9  1  0.58106000  0.19410000  0.85658000  1.0 -0.6094342117
O  O10  1  0.61304000  0.41894000  0.85658000  1.0 -0.6094342117
O  O11  1  0.80590000  0.38696000  0.85658000  1.0 -0.6094342117
O  O12  1  0.19410000  0.58106000  0.64342000  1.0 -0.6094342117
O  O13  1  0.19410000  0.58106000  0.35658000  1.0 -0.6094342117
O  O14  1  0.41894000  0.61304000  0.35658000  1.0 -0.6094342117
O  O15  1  0.38696000  0.80590000  0.35658000  1.0 -0.6094342117
O  O16  1  0.58106000  0.38696000  0.35658000  1.0 -0.6094342117
O  O17  1  0.61304000  0.19410000  0.35658000  1.0 -0.6094342117
O  O18  1  0.58106000  0.19410000  0.14342000  1.0 -0.6094342117
O  O19  1  0.61304000  0.41894000  0.14342000  1.0 -0.6094342117
O  O20  1  0.80590000  0.38696000  0.14342000  1.0 -0.6094342117
O  O21  1  0.41894000  0.80590000  0.14342000  1.0 -0.6094342117
O  O22  1  0.38696000  0.58106000  0.14342000  1.0 -0.6094342117
O  O23  1  0.19410000  0.61304000  0.14342000  1.0 -0.6094342117
O  O24  1  0.80590000  0.41894000  0.35658000  1.0 -0.6094342117
O  O25  1  0.94890000  0.55860000  0.59000000  1.0 -0.5469115694
O  O26  1  0.44140000  0.39030000  0.59000000  1.0 -0.5469115694
O  O27  1  0.60970000  0.05110000  0.59000000  1.0 -0.5469115694
O  O28  1  0.55860000  0.60970000  0.59000000  1.0 -0.5469115694
O  O29  1  0.39030000  0.94890000  0.59000000  1.0 -0.5469115694
O  O30  1  0.55860000  0.94890000  0.91000000  1.0 -0.5469115694
O  O31  1  0.39030000  0.44140000  0.91000000  1.0 -0.5469115694
O  O32  1  0.05110000  0.60970000  0.91000000  1.0 -0.5469115694
O  O33  1  0.44140000  0.05110000  0.91000000  1.0 -0.5469115694
O  O34  1  0.60970000  0.55860000  0.91000000  1.0 -0.5469115694
O  O35  1  0.94890000  0.39030000  0.91000000  1.0 -0.5469115694
O  O36  1  0.05110000  0.44140000  0.59000000  1.0 -0.5469115694
O  O37  1  0.05110000  0.44140000  0.41000000  1.0 -0.5469115694
O  O38  1  0.55860000  0.60970000  0.41000000  1.0 -0.5469115694
O  O39  1  0.39030000  0.94890000  0.41000000  1.0 -0.5469115694
O  O40  1  0.44140000  0.39030000  0.41000000  1.0 -0.5469115694
O  O41  1  0.60970000  0.05110000  0.41000000  1.0 -0.5469115694
O  O42  1  0.44140000  0.05110000  0.09000000  1.0 -0.5469115694
O  O43  1  0.60970000  0.55860000  0.09000000  1.0 -0.5469115694
O  O44  1  0.94890000  0.39030000  0.09000000  1.0 -0.5469115694
O  O45  1  0.55860000  0.94890000  0.09000000  1.0 -0.5469115694
O  O46  1  0.39030000  0.44140000  0.09000000  1.0 -0.5469115694
O  O47  1  0.05110000  0.60970000  0.09000000  1.0 -0.5469115694
O  O48  1  0.94890000  0.55860000  0.41000000  1.0 -0.5469115694
O  O49  1  0.23590000  0.47180000  0.25000000  1.0 -0.2180573935
O  O50  1  0.52820000  0.76410000  0.25000000  1.0 -0.2180573935
O  O51  1  0.23590000  0.76410000  0.25000000  1.0 -0.2180573935
O  O52  1  0.47180000  0.23590000  0.25000000  1.0 -0.2180573935
O  O53  1  0.76410000  0.23590000  0.25000000  1.0 -0.2180573935
O  O54  1  0.76410000  0.52820000  0.25000000  1.0 -0.2180573935
O  O55  1  0.76410000  0.52820000  0.75000000  1.0 -0.2180573935
O  O56  1  0.47180000  0.23590000  0.75000000  1.0 -0.2180573935
O  O57  1  0.76410000  0.23590000  0.75000000  1.0 -0.2180573935
O  O58  1  0.52820000  0.76410000  0.75000000  1.0 -0.2180573935
O  O59  1  0.23590000  0.76410000  0.75000000  1.0 -0.2180573935
O  O60  1  0.23590000  0.47180000  0.75000000  1.0 -0.2180573935
