# DDEC6 charges by PACMAN v1.1 (https://github.com/mtap-research/PACMAN-charge/)
data_WEVRUK_FSR_pacman
_symmetry_space_group_name_H-M   'P 1'
_cell_length_a   15.19900000
_cell_length_b   15.19900000
_cell_length_c   14.58400000
_cell_angle_alpha   90.00000000
_cell_angle_beta   90.00000000
_cell_angle_gamma   120.00000000
_symmetry_Int_Tables_number   1
_chemical_formula_structural   Pr2Cu3H24(C4O5)6
_chemical_formula_sum   'Pr4 Cu6 H48 C48 O60'
_cell_volume   2917.67770864
_cell_formula_units_Z   2
loop_
 _symmetry_equiv_pos_site_id
 _symmetry_equiv_pos_as_xyz
  1  'x, y, z'
loop_
 _atom_site_type_symbol
 _atom_site_label
 _atom_site_symmetry_multiplicity
 _atom_site_fract_x
 _atom_site_fract_y
 _atom_site_fract_z
 _atom_site_occupancy
 _atom_site_charge
Pr  Pr1  1  0.66666667  0.33333333  0.75000000  1.0 1.965218773
Pr  Pr2  1  0.33333333  0.66666667  0.75000000  1.0 1.9635019208
Pr  Pr3  1  0.66666667  0.33333333  0.25000000  1.0 1.9635019208
Pr  Pr4  1  0.33333333  0.66666667  0.25000000  1.0 1.9635019208
Cu  Cu1  1  0.50000000  0.00000000  0.00000000  1.0 0.9031245614
Cu  Cu2  1  0.00000000  0.50000000  0.00000000  1.0 0.9031245614
Cu  Cu3  1  0.50000000  0.50000000  0.00000000  1.0 0.9031245614
Cu  Cu4  1  0.50000000  0.00000000  0.50000000  1.0 0.9031245614
Cu  Cu5  1  0.50000000  0.50000000  0.50000000  1.0 0.9031245614
Cu  Cu6  1  0.00000000  0.50000000  0.50000000  1.0 0.9031245614
H  H1  1  0.21390000  0.36460000  0.16320000  1.0 0.1377347017
H  H2  1  0.63540000  0.84930000  0.16320000  1.0 0.1377347017
H  H3  1  0.15070000  0.78610000  0.16320000  1.0 0.1377347017
H  H4  1  0.36460000  0.15070000  0.16320000  1.0 0.1377347017
H  H5  1  0.84930000  0.21390000  0.16320000  1.0 0.1377347017
H  H6  1  0.15070000  0.36460000  0.66320000  1.0 0.1377347017
H  H7  1  0.21390000  0.84930000  0.66320000  1.0 0.1377347017
H  H8  1  0.36460000  0.21390000  0.66320000  1.0 0.1377347017
H  H9  1  0.84930000  0.63540000  0.66320000  1.0 0.1377347017
H  H10  1  0.78610000  0.15070000  0.66320000  1.0 0.1377347017
H  H11  1  0.21390000  0.36460000  0.83680000  1.0 0.1377347017
H  H12  1  0.36460000  0.21390000  0.33680000  1.0 0.1377347017
H  H13  1  0.78610000  0.63540000  0.83680000  1.0 0.1377347017
H  H14  1  0.36460000  0.15070000  0.83680000  1.0 0.1377347017
H  H15  1  0.84930000  0.21390000  0.83680000  1.0 0.1377347017
H  H16  1  0.63540000  0.84930000  0.83680000  1.0 0.1377347017
H  H17  1  0.15070000  0.78610000  0.83680000  1.0 0.1377347017
H  H18  1  0.84930000  0.63540000  0.33680000  1.0 0.1377347017
H  H19  1  0.78610000  0.15070000  0.33680000  1.0 0.1377347017
H  H20  1  0.63540000  0.78610000  0.33680000  1.0 0.1377347017
H  H21  1  0.15070000  0.36460000  0.33680000  1.0 0.1377347017
H  H22  1  0.21390000  0.84930000  0.33680000  1.0 0.1377347017
H  H23  1  0.78610000  0.63540000  0.16320000  1.0 0.1377347017
H  H24  1  0.63540000  0.78610000  0.66320000  1.0 0.1377347017
H  H25  1  0.29000000  0.37920000  0.24260000  1.0 0.1258696223
H  H26  1  0.62080000  0.91080000  0.24260000  1.0 0.1258696223
H  H27  1  0.08920000  0.71000000  0.24260000  1.0 0.1258696223
H  H28  1  0.37920000  0.08920000  0.24260000  1.0 0.1258696223
H  H29  1  0.91080000  0.29000000  0.24260000  1.0 0.1258696223
H  H30  1  0.08920000  0.37920000  0.74260000  1.0 0.1258696223
H  H31  1  0.29000000  0.91080000  0.74260000  1.0 0.1258696223
H  H32  1  0.37920000  0.29000000  0.74260000  1.0 0.1258696223
H  H33  1  0.91080000  0.62080000  0.74260000  1.0 0.1258696223
H  H34  1  0.71000000  0.08920000  0.74260000  1.0 0.1258696223
H  H35  1  0.29000000  0.37920000  0.75740000  1.0 0.1258696223
H  H36  1  0.37920000  0.29000000  0.25740000  1.0 0.1258696223
H  H37  1  0.71000000  0.62080000  0.75740000  1.0 0.1258696223
H  H38  1  0.37920000  0.08920000  0.75740000  1.0 0.1258696223
H  H39  1  0.91080000  0.29000000  0.75740000  1.0 0.1258696223
H  H40  1  0.62080000  0.91080000  0.75740000  1.0 0.1258696223
H  H41  1  0.08920000  0.71000000  0.75740000  1.0 0.1258696223
H  H42  1  0.91080000  0.62080000  0.25740000  1.0 0.1258696223
H  H43  1  0.71000000  0.08920000  0.25740000  1.0 0.1258696223
H  H44  1  0.62080000  0.71000000  0.25740000  1.0 0.1258696223
H  H45  1  0.08920000  0.37920000  0.25740000  1.0 0.1258696223
H  H46  1  0.29000000  0.91080000  0.25740000  1.0 0.1258696223
H  H47  1  0.71000000  0.62080000  0.24260000  1.0 0.1258696223
H  H48  1  0.62080000  0.71000000  0.74260000  1.0 0.1258696223
C  C1  1  0.87250000  0.51550000  0.64020000  1.0 0.6287568763
C  C2  1  0.48450000  0.35700000  0.64020000  1.0 0.6287568763
C  C3  1  0.64300000  0.12750000  0.64020000  1.0 0.6287568763
C  C4  1  0.51550000  0.64300000  0.64020000  1.0 0.6287568763
C  C5  1  0.35700000  0.87250000  0.64020000  1.0 0.6287568763
C  C6  1  0.64300000  0.51550000  0.14020000  1.0 0.6287568763
C  C7  1  0.87250000  0.35700000  0.14020000  1.0 0.6287568763
C  C8  1  0.51550000  0.87250000  0.14020000  1.0 0.6287568763
C  C9  1  0.35700000  0.48450000  0.14020000  1.0 0.6287568763
C  C10  1  0.12750000  0.64300000  0.14020000  1.0 0.6287568763
C  C11  1  0.87250000  0.51550000  0.35980000  1.0 0.6287568763
C  C12  1  0.51550000  0.87250000  0.85980000  1.0 0.6287568763
C  C13  1  0.12750000  0.48450000  0.35980000  1.0 0.6287568763
C  C14  1  0.51550000  0.64300000  0.35980000  1.0 0.6287568763
C  C15  1  0.35700000  0.87250000  0.35980000  1.0 0.6287568763
C  C16  1  0.48450000  0.35700000  0.35980000  1.0 0.6287568763
C  C17  1  0.64300000  0.12750000  0.35980000  1.0 0.6287568763
C  C18  1  0.35700000  0.48450000  0.85980000  1.0 0.6287568763
C  C19  1  0.12750000  0.64300000  0.85980000  1.0 0.6287568763
C  C20  1  0.48450000  0.12750000  0.85980000  1.0 0.6287568763
C  C21  1  0.64300000  0.51550000  0.85980000  1.0 0.6287568763
C  C22  1  0.87250000  0.35700000  0.85980000  1.0 0.6287568763
C  C23  1  0.12750000  0.48450000  0.64020000  1.0 0.6287568763
C  C24  1  0.48450000  0.12750000  0.14020000  1.0 0.6287568763
C  C25  1  0.14560000  0.41470000  0.29950000  1.0 -0.1663982794
C  C26  1  0.58530000  0.73090000  0.29950000  1.0 -0.1663982794
C  C27  1  0.26910000  0.85440000  0.29950000  1.0 -0.1663982794
C  C28  1  0.41470000  0.26910000  0.29950000  1.0 -0.1663982794
C  C29  1  0.73090000  0.14560000  0.29950000  1.0 -0.1663982794
C  C30  1  0.26910000  0.41470000  0.79950000  1.0 -0.1663982794
C  C31  1  0.14560000  0.73090000  0.79950000  1.0 -0.1663982794
C  C32  1  0.41470000  0.14560000  0.79950000  1.0 -0.1663982794
C  C33  1  0.73090000  0.58530000  0.79950000  1.0 -0.1663982794
C  C34  1  0.85440000  0.26910000  0.79950000  1.0 -0.1663982794
C  C35  1  0.14560000  0.41470000  0.70050000  1.0 -0.1663982794
C  C36  1  0.41470000  0.14560000  0.20050000  1.0 -0.1663982794
C  C37  1  0.85440000  0.58530000  0.70050000  1.0 -0.1663982794
C  C38  1  0.41470000  0.26910000  0.70050000  1.0 -0.1663982794
C  C39  1  0.73090000  0.14560000  0.70050000  1.0 -0.1663982794
C  C40  1  0.58530000  0.73090000  0.70050000  1.0 -0.1663982794
C  C41  1  0.26910000  0.85440000  0.70050000  1.0 -0.1663982794
C  C42  1  0.73090000  0.58530000  0.20050000  1.0 -0.1663982794
C  C43  1  0.85440000  0.26910000  0.20050000  1.0 -0.1663982794
C  C44  1  0.58530000  0.85440000  0.20050000  1.0 -0.1663982794
C  C45  1  0.26910000  0.41470000  0.20050000  1.0 -0.1663982794
C  C46  1  0.14560000  0.73090000  0.20050000  1.0 -0.1663982794
C  C47  1  0.85440000  0.58530000  0.29950000  1.0 -0.1663982794
C  C48  1  0.58530000  0.85440000  0.79950000  1.0 -0.1663982794
O  O1  1  0.80800000  0.42290000  0.64070000  1.0 -0.6224021409
O  O2  1  0.57710000  0.38510000  0.64070000  1.0 -0.6224021409
O  O3  1  0.61490000  0.19200000  0.64070000  1.0 -0.6224021409
O  O4  1  0.42290000  0.61490000  0.64070000  1.0 -0.6224021409
O  O5  1  0.38510000  0.80800000  0.64070000  1.0 -0.6224021409
O  O6  1  0.61490000  0.42290000  0.14070000  1.0 -0.6224021409
O  O7  1  0.80800000  0.38510000  0.14070000  1.0 -0.6224021409
O  O8  1  0.42290000  0.80800000  0.14070000  1.0 -0.6224021409
O  O9  1  0.38510000  0.57710000  0.14070000  1.0 -0.6224021409
O  O10  1  0.19200000  0.61490000  0.14070000  1.0 -0.6224021409
O  O11  1  0.80800000  0.42290000  0.35930000  1.0 -0.6224021409
O  O12  1  0.42290000  0.80800000  0.85930000  1.0 -0.6224021409
O  O13  1  0.19200000  0.57710000  0.35930000  1.0 -0.6224021409
O  O14  1  0.42290000  0.61490000  0.35930000  1.0 -0.6224021409
O  O15  1  0.38510000  0.80800000  0.35930000  1.0 -0.6224021409
O  O16  1  0.57710000  0.38510000  0.35930000  1.0 -0.6224021409
O  O17  1  0.61490000  0.19200000  0.35930000  1.0 -0.6224021409
O  O18  1  0.38510000  0.57710000  0.85930000  1.0 -0.6224021409
O  O19  1  0.19200000  0.61490000  0.85930000  1.0 -0.6224021409
O  O20  1  0.57710000  0.19200000  0.85930000  1.0 -0.6224021409
O  O21  1  0.61490000  0.42290000  0.85930000  1.0 -0.6224021409
O  O22  1  0.80800000  0.38510000  0.85930000  1.0 -0.6224021409
O  O23  1  0.19200000  0.57710000  0.64070000  1.0 -0.6224021409
O  O24  1  0.57710000  0.19200000  0.14070000  1.0 -0.6224021409
O  O25  1  0.95170000  0.55800000  0.59360000  1.0 -0.5437118704
O  O26  1  0.44200000  0.39370000  0.59360000  1.0 -0.5437118704
O  O27  1  0.60630000  0.04830000  0.59360000  1.0 -0.5437118704
O  O28  1  0.55800000  0.60630000  0.59360000  1.0 -0.5437118704
O  O29  1  0.39370000  0.95170000  0.59360000  1.0 -0.5437118704
O  O30  1  0.60630000  0.55800000  0.09360000  1.0 -0.5437118704
O  O31  1  0.95170000  0.39370000  0.09360000  1.0 -0.5437118704
O  O32  1  0.55800000  0.95170000  0.09360000  1.0 -0.5437118704
O  O33  1  0.39370000  0.44200000  0.09360000  1.0 -0.5437118704
O  O34  1  0.04830000  0.60630000  0.09360000  1.0 -0.5437118704
O  O35  1  0.95170000  0.55800000  0.40640000  1.0 -0.5437118704
O  O36  1  0.55800000  0.95170000  0.90640000  1.0 -0.5437118704
O  O37  1  0.04830000  0.44200000  0.40640000  1.0 -0.5437118704
O  O38  1  0.55800000  0.60630000  0.40640000  1.0 -0.5437118704
O  O39  1  0.39370000  0.95170000  0.40640000  1.0 -0.5437118704
O  O40  1  0.44200000  0.39370000  0.40640000  1.0 -0.5437118704
O  O41  1  0.60630000  0.04830000  0.40640000  1.0 -0.5437118704
O  O42  1  0.39370000  0.44200000  0.90640000  1.0 -0.5437118704
O  O43  1  0.04830000  0.60630000  0.90640000  1.0 -0.5437118704
O  O44  1  0.44200000  0.04830000  0.90640000  1.0 -0.5437118704
O  O45  1  0.60630000  0.55800000  0.90640000  1.0 -0.5437118704
O  O46  1  0.95170000  0.39370000  0.90640000  1.0 -0.5437118704
O  O47  1  0.04830000  0.44200000  0.59360000  1.0 -0.5437118704
O  O48  1  0.44200000  0.04830000  0.09360000  1.0 -0.5437118704
O  O49  1  0.23620000  0.47240000  0.25000000  1.0 -0.2259038111
O  O50  1  0.52760000  0.76380000  0.25000000  1.0 -0.2259038111
O  O51  1  0.23620000  0.76380000  0.25000000  1.0 -0.2259038111
O  O52  1  0.47240000  0.23620000  0.25000000  1.0 -0.2259038111
O  O53  1  0.76380000  0.23620000  0.25000000  1.0 -0.2259038111
O  O54  1  0.23620000  0.47240000  0.75000000  1.0 -0.2259038111
O  O55  1  0.23620000  0.76380000  0.75000000  1.0 -0.2259038111
O  O56  1  0.47240000  0.23620000  0.75000000  1.0 -0.2259038111
O  O57  1  0.76380000  0.52760000  0.75000000  1.0 -0.2259038111
O  O58  1  0.76380000  0.23620000  0.75000000  1.0 -0.2259038111
O  O59  1  0.52760000  0.76380000  0.75000000  1.0 -0.2259038111
O  O60  1  0.76380000  0.52760000  0.25000000  1.0 -0.2259038111
