# DDEC6 charges by PACMAN v1.1 (https://github.com/mtap-research/PACMAN-charge/)
data_WEXSEZ_FSR_pacman
_symmetry_space_group_name_H-M   'P 1'
_cell_length_a   15.66760000
_cell_length_b   15.66760000
_cell_length_c   15.66760000
_cell_angle_alpha   71.68240000
_cell_angle_beta   71.68240000
_cell_angle_gamma   71.68240000
_symmetry_Int_Tables_number   1
_chemical_formula_structural   ZnH3C14N2O5
_chemical_formula_sum   'Zn6 H18 C84 N12 O30'
_cell_volume   3365.53899448
_cell_formula_units_Z   6
loop_
 _symmetry_equiv_pos_site_id
 _symmetry_equiv_pos_as_xyz
  1  'x, y, z'
loop_
 _atom_site_type_symbol
 _atom_site_label
 _atom_site_symmetry_multiplicity
 _atom_site_fract_x
 _atom_site_fract_y
 _atom_site_fract_z
 _atom_site_occupancy
 _atom_site_charge
Zn  Zn1  1  0.59331000  0.00573000  0.00573000  1.0 0.9129437643
Zn  Zn2  1  0.00573000  0.00573000  0.59331000  1.0 0.9129437643
Zn  Zn3  1  0.00573000  0.59331000  0.00573000  1.0 0.9129437643
Zn  Zn4  1  0.40669000  0.99427000  0.99427000  1.0 0.9129437643
Zn  Zn5  1  0.99427000  0.40669000  0.99427000  1.0 0.9129437643
Zn  Zn6  1  0.99427000  0.99427000  0.40669000  1.0 0.9129437643
H  H1  1  0.47660000  0.69600000  0.01220000  1.0 0.1319248945
H  H2  1  0.69600000  0.01220000  0.47660000  1.0 0.1319248945
H  H3  1  0.01220000  0.47660000  0.69600000  1.0 0.1319248945
H  H4  1  0.52340000  0.98780000  0.30400000  1.0 0.1319248945
H  H5  1  0.30400000  0.52340000  0.98780000  1.0 0.1319248945
H  H6  1  0.98780000  0.30400000  0.52340000  1.0 0.1319248945
H  H7  1  0.52340000  0.30400000  0.98780000  1.0 0.1319248945
H  H8  1  0.30400000  0.98780000  0.52340000  1.0 0.1319248945
H  H9  1  0.98780000  0.52340000  0.30400000  1.0 0.1319248945
H  H10  1  0.47660000  0.01220000  0.69600000  1.0 0.1319248945
H  H11  1  0.69600000  0.47660000  0.01220000  1.0 0.1319248945
H  H12  1  0.01220000  0.69600000  0.47660000  1.0 0.1319248945
H  H13  1  0.71940000  0.71940000  0.02500000  1.0 0.1319248945
H  H14  1  0.71940000  0.02500000  0.71940000  1.0 0.1319248945
H  H15  1  0.02500000  0.71940000  0.71940000  1.0 0.1319248945
H  H16  1  0.28060000  0.97500000  0.28060000  1.0 0.1319248945
H  H17  1  0.28060000  0.28060000  0.97500000  1.0 0.1319248945
H  H18  1  0.97500000  0.28060000  0.28060000  1.0 0.1319248945
C  C1  1  0.52175000  0.52175000  0.00450000  1.0 -0.1009667081
C  C2  1  0.52175000  0.00450000  0.52175000  1.0 -0.1009667081
C  C3  1  0.00450000  0.52175000  0.52175000  1.0 -0.1009667081
C  C4  1  0.47825000  0.99550000  0.47825000  1.0 -0.1009667081
C  C5  1  0.47825000  0.47825000  0.99550000  1.0 -0.1009667081
C  C6  1  0.99550000  0.47825000  0.47825000  1.0 -0.1009667081
C  C7  1  0.57665000  0.57665000  0.01050000  1.0 0.1126915501
C  C8  1  0.57665000  0.01050000  0.57665000  1.0 0.1126915501
C  C9  1  0.01050000  0.57665000  0.57665000  1.0 0.1126915501
C  C10  1  0.42335000  0.98950000  0.42335000  1.0 0.1126915501
C  C11  1  0.42335000  0.42335000  0.98950000  1.0 0.1126915501
C  C12  1  0.98950000  0.42335000  0.42335000  1.0 0.1126915501
C  C13  1  0.53842000  0.66982000  0.01352000  1.0 -0.1183851554
C  C14  1  0.66982000  0.01352000  0.53842000  1.0 -0.1183851554
C  C15  1  0.01352000  0.53842000  0.66982000  1.0 -0.1183851554
C  C16  1  0.46158000  0.98648000  0.33018000  1.0 -0.1183851554
C  C17  1  0.33018000  0.46158000  0.98648000  1.0 -0.1183851554
C  C18  1  0.98648000  0.33018000  0.46158000  1.0 -0.1183851554
C  C19  1  0.46158000  0.33018000  0.98648000  1.0 -0.1183851554
C  C20  1  0.33018000  0.98648000  0.46158000  1.0 -0.1183851554
C  C21  1  0.98648000  0.46158000  0.33018000  1.0 -0.1183851554
C  C22  1  0.53842000  0.01352000  0.66982000  1.0 -0.1183851554
C  C23  1  0.66982000  0.53842000  0.01352000  1.0 -0.1183851554
C  C24  1  0.01352000  0.66982000  0.53842000  1.0 -0.1183851554
C  C25  1  0.59115000  0.72295000  0.01845000  1.0 -0.0291236885
C  C26  1  0.72295000  0.01845000  0.59115000  1.0 -0.0291236885
C  C27  1  0.01845000  0.59115000  0.72295000  1.0 -0.0291236885
C  C28  1  0.40885000  0.98155000  0.27705000  1.0 -0.0291236885
C  C29  1  0.27705000  0.40885000  0.98155000  1.0 -0.0291236885
C  C30  1  0.98155000  0.27705000  0.40885000  1.0 -0.0291236885
C  C31  1  0.40885000  0.27705000  0.98155000  1.0 -0.0291236885
C  C32  1  0.27705000  0.98155000  0.40885000  1.0 -0.0291236885
C  C33  1  0.98155000  0.40885000  0.27705000  1.0 -0.0291236885
C  C34  1  0.59115000  0.01845000  0.72295000  1.0 -0.0291236885
C  C35  1  0.72295000  0.59115000  0.01845000  1.0 -0.0291236885
C  C36  1  0.01845000  0.72295000  0.59115000  1.0 -0.0291236885
C  C37  1  0.68375000  0.68375000  0.02130000  1.0 -0.0907457886
C  C38  1  0.68375000  0.02130000  0.68375000  1.0 -0.0907457886
C  C39  1  0.02130000  0.68375000  0.68375000  1.0 -0.0907457886
C  C40  1  0.31625000  0.97870000  0.31625000  1.0 -0.0907457886
C  C41  1  0.31625000  0.31625000  0.97870000  1.0 -0.0907457886
C  C42  1  0.97870000  0.31625000  0.31625000  1.0 -0.0907457886
C  C43  1  0.55125000  0.82375000  0.01725000  1.0 0.6079106566
C  C44  1  0.82375000  0.01725000  0.55125000  1.0 0.6079106566
C  C45  1  0.01725000  0.55125000  0.82375000  1.0 0.6079106566
C  C46  1  0.44875000  0.98275000  0.17625000  1.0 0.6079106566
C  C47  1  0.17625000  0.44875000  0.98275000  1.0 0.6079106566
C  C48  1  0.98275000  0.17625000  0.44875000  1.0 0.6079106566
C  C49  1  0.44875000  0.17625000  0.98275000  1.0 0.6079106566
C  C50  1  0.17625000  0.98275000  0.44875000  1.0 0.6079106566
C  C51  1  0.98275000  0.44875000  0.17625000  1.0 0.6079106566
C  C52  1  0.55125000  0.01725000  0.82375000  1.0 0.6079106566
C  C53  1  0.82375000  0.55125000  0.01725000  1.0 0.6079106566
C  C54  1  0.01725000  0.82375000  0.55125000  1.0 0.6079106566
C  C55  1  0.77460000  0.09520000  0.85830000  1.0 -0.0907457886
C  C56  1  0.09520000  0.85830000  0.77460000  1.0 -0.0907457886
C  C57  1  0.85830000  0.77460000  0.09520000  1.0 -0.0806706436
C  C58  1  0.22540000  0.14170000  0.90480000  1.0 -0.0907457886
C  C59  1  0.90480000  0.22540000  0.14170000  1.0 -0.0806706436
C  C60  1  0.14170000  0.90480000  0.22540000  1.0 -0.0907457886
C  C61  1  0.22540000  0.90480000  0.14170000  1.0 -0.0907457886
C  C62  1  0.90480000  0.14170000  0.22540000  1.0 -0.0907457886
C  C63  1  0.14170000  0.22540000  0.90480000  1.0 -0.0907457886
C  C64  1  0.77460000  0.85830000  0.09520000  1.0 -0.0806706436
C  C65  1  0.09520000  0.77460000  0.85830000  1.0 -0.0907457886
C  C66  1  0.85830000  0.09520000  0.77460000  1.0 -0.0907457886
C  C67  1  0.87620000  0.00410000  0.96060000  1.0 -0.0291236885
C  C68  1  0.00410000  0.96060000  0.87620000  1.0 -0.0291236885
C  C69  1  0.96060000  0.87620000  0.00410000  1.0 -0.0291236885
C  C70  1  0.12380000  0.03940000  0.99590000  1.0 -0.0291236885
C  C71  1  0.99590000  0.12380000  0.03940000  1.0 -0.0291236885
C  C72  1  0.03940000  0.99590000  0.12380000  1.0 -0.0291236885
C  C73  1  0.12380000  0.99590000  0.03940000  1.0 -0.0291236885
C  C74  1  0.99590000  0.03940000  0.12380000  1.0 -0.0238402567
C  C75  1  0.03940000  0.12380000  0.99590000  1.0 -0.0291236885
C  C76  1  0.87620000  0.96060000  0.00410000  1.0 -0.0291236885
C  C77  1  0.00410000  0.87620000  0.96060000  1.0 -0.0291236885
C  C78  1  0.96060000  0.00410000  0.87620000  1.0 -0.0291236885
C  C79  1  0.81160000  0.90890000  0.90890000  1.0 0.0068959193
C  C80  1  0.90890000  0.90890000  0.81160000  1.0 0.0036738734
C  C81  1  0.90890000  0.81160000  0.90890000  1.0 0.0036738734
C  C82  1  0.18840000  0.09110000  0.09110000  1.0 0.0068959193
C  C83  1  0.09110000  0.18840000  0.09110000  1.0 0.0068959193
C  C84  1  0.09110000  0.09110000  0.18840000  1.0 0.0036738734
N  N1  1  0.79200000  0.00480000  0.93160000  1.0 0.2227024433
N  N2  1  0.00480000  0.93160000  0.79200000  1.0 0.2227024433
N  N3  1  0.93160000  0.79200000  0.00480000  1.0 0.2227024433
N  N4  1  0.20800000  0.06840000  0.99520000  1.0 0.2259307962
N  N5  1  0.99520000  0.20800000  0.06840000  1.0 0.2227024433
N  N6  1  0.06840000  0.99520000  0.20800000  1.0 0.2227024433
N  N7  1  0.20800000  0.99520000  0.06840000  1.0 0.2227024433
N  N8  1  0.99520000  0.06840000  0.20800000  1.0 0.2227024433
N  N9  1  0.06840000  0.20800000  0.99520000  1.0 0.2227024433
N  N10  1  0.79200000  0.93160000  0.00480000  1.0 0.2227024433
N  N11  1  0.00480000  0.79200000  0.93160000  1.0 0.2227024433
N  N12  1  0.93160000  0.00480000  0.79200000  1.0 0.2259307962
O  O1  1  0.60456000  0.86816000  0.01976000  1.0 -0.5630117718
O  O2  1  0.86816000  0.01976000  0.60456000  1.0 -0.5630117718
O  O3  1  0.01976000  0.60456000  0.86816000  1.0 -0.5630117718
O  O4  1  0.39544000  0.98024000  0.13184000  1.0 -0.5630117718
O  O5  1  0.13184000  0.39544000  0.98024000  1.0 -0.5630117718
O  O6  1  0.98024000  0.13184000  0.39544000  1.0 -0.5630117718
O  O7  1  0.39544000  0.13184000  0.98024000  1.0 -0.5630117718
O  O8  1  0.13184000  0.98024000  0.39544000  1.0 -0.5630117718
O  O9  1  0.98024000  0.39544000  0.13184000  1.0 -0.5630117718
O  O10  1  0.60456000  0.01976000  0.86816000  1.0 -0.5630117718
O  O11  1  0.86816000  0.60456000  0.01976000  1.0 -0.5630117718
O  O12  1  0.01976000  0.86816000  0.60456000  1.0 -0.5630117718
O  O13  1  0.46875000  0.85715000  0.01115000  1.0 -0.5196216914
O  O14  1  0.85715000  0.01115000  0.46875000  1.0 -0.5196216914
O  O15  1  0.01115000  0.46875000  0.85715000  1.0 -0.5196216914
O  O16  1  0.53125000  0.98885000  0.14285000  1.0 -0.5196216914
O  O17  1  0.14285000  0.53125000  0.98885000  1.0 -0.5196216914
O  O18  1  0.98885000  0.14285000  0.53125000  1.0 -0.5196216914
O  O19  1  0.53125000  0.14285000  0.98885000  1.0 -0.5196216914
O  O20  1  0.14285000  0.98885000  0.53125000  1.0 -0.5196216914
O  O21  1  0.98885000  0.53125000  0.14285000  1.0 -0.5196216914
O  O22  1  0.46875000  0.01115000  0.85715000  1.0 -0.5196216914
O  O23  1  0.85715000  0.46875000  0.01115000  1.0 -0.5196216914
O  O24  1  0.01115000  0.85715000  0.46875000  1.0 -0.5196216914
O  O25  1  0.71938000  0.00562000  0.00562000  1.0 -0.2031792912
O  O26  1  0.00562000  0.00562000  0.71938000  1.0 -0.2031792912
O  O27  1  0.00562000  0.71938000  0.00562000  1.0 -0.2031792912
O  O28  1  0.28062000  0.99438000  0.99438000  1.0 -0.2031792912
O  O29  1  0.99438000  0.28062000  0.99438000  1.0 -0.2031792912
O  O30  1  0.99438000  0.99438000  0.28062000  1.0 -0.2031792912
