# DDEC6 charges by PACMAN v1.1 (https://github.com/mtap-research/PACMAN-charge/)
data_WEXTEB_FSR_pacman
_symmetry_space_group_name_H-M   'P 1'
_cell_length_a   14.02070000
_cell_length_b   14.02070000
_cell_length_c   18.37690000
_cell_angle_alpha   70.51160000
_cell_angle_beta   109.48800000
_cell_angle_gamma   136.40000000
_symmetry_Int_Tables_number   1
_chemical_formula_structural   CuH18C25IN4
_chemical_formula_sum   'Cu4 H72 C100 I4 N16'
_cell_volume   2324.90242130
_cell_formula_units_Z   4
loop_
 _symmetry_equiv_pos_site_id
 _symmetry_equiv_pos_as_xyz
  1  'x, y, z'
loop_
 _atom_site_type_symbol
 _atom_site_label
 _atom_site_symmetry_multiplicity
 _atom_site_fract_x
 _atom_site_fract_y
 _atom_site_fract_z
 _atom_site_occupancy
 _atom_site_charge
Cu  Cu1  1  0.43974000  0.42990000  0.94005000  1.0 0.1685576935
Cu  Cu2  1  0.42990000  0.43974000  0.55995000  1.0 0.1685576935
Cu  Cu3  1  0.56026000  0.57010000  0.05995000  1.0 0.1685576935
Cu  Cu4  1  0.57010000  0.56026000  0.44005000  1.0 0.1685576935
H  H1  1  0.35170000  0.42350000  0.30660000  1.0 0.0878648919
H  H2  1  0.25200000  0.47700000  0.19080000  1.0 0.1204278481
H  H3  1  0.53960000  0.86960000  0.22960000  1.0 0.1369249746
H  H4  1  0.62470000  0.81110000  0.34370000  1.0 0.0991752992
H  H5  1  0.24470000  0.55210000  0.06980000  1.0 0.1083443959
H  H6  1  0.19110000  0.80050000  0.92610000  1.0 0.1204278481
H  H7  1  0.43820000  0.91180000  0.13060000  1.0 0.1204278481
H  H8  1  0.50430000  0.10950000  0.09000000  1.0 0.12744009
H  H9  1  0.54630000  0.30630000  0.05590000  1.0 0.0991752992
H  H10  1  0.26990000  0.16830000  0.87550000  1.0 0.0991752992
H  H11  1  0.17760000  0.94180000  0.93050000  1.0 0.1369249746
H  H12  1  0.93150000  0.19330000  0.88490000  1.0 0.1369249746
H  H13  1  0.78770000  0.13930000  0.76630000  1.0 0.1083443959
H  H14  1  0.75100000  0.28160000  0.68960000  1.0 0.1083443959
H  H15  1  0.85920000  0.48480000  0.72940000  1.0 0.1204278481
H  H16  1  0.12590000  0.43530000  0.97410000  1.0 0.2815860708
H  H17  1  0.47680000  0.50780000  0.27320000  1.0 0.0679586207
H  H18  1  0.38180000  0.55260000  0.16000000  1.0 0.1083443959
H  H19  1  0.42350000  0.35170000  0.19340000  1.0 0.0878648919
H  H20  1  0.47700000  0.25200000  0.30920000  1.0 0.1204278481
H  H21  1  0.86960000  0.53960000  0.27040000  1.0 0.1369249746
H  H22  1  0.81110000  0.62470000  0.15630000  1.0 0.0991752992
H  H23  1  0.55210000  0.24470000  0.43020000  1.0 0.1083443959
H  H24  1  0.80050000  0.19110000  0.57390000  1.0 0.1204278481
H  H25  1  0.91180000  0.43820000  0.36940000  1.0 0.1204278481
H  H26  1  0.10950000  0.50430000  0.41000000  1.0 0.12744009
H  H27  1  0.30630000  0.54630000  0.44410000  1.0 0.0991752992
H  H28  1  0.16830000  0.26990000  0.62450000  1.0 0.0991752992
H  H29  1  0.94180000  0.17760000  0.56950000  1.0 0.1369249746
H  H30  1  0.19330000  0.93150000  0.61510000  1.0 0.1369249746
H  H31  1  0.13930000  0.78770000  0.73370000  1.0 0.1083443959
H  H32  1  0.28160000  0.75100000  0.81040000  1.0 0.1083443959
H  H33  1  0.48480000  0.85920000  0.77060000  1.0 0.1204278481
H  H34  1  0.43530000  0.12590000  0.52590000  1.0 0.2815860708
H  H35  1  0.50780000  0.47680000  0.22680000  1.0 0.0679586207
H  H36  1  0.55260000  0.38180000  0.34000000  1.0 0.1083443959
H  H37  1  0.64830000  0.57650000  0.69340000  1.0 0.0878648919
H  H38  1  0.74800000  0.52300000  0.80920000  1.0 0.1204278481
H  H39  1  0.46040000  0.13040000  0.77040000  1.0 0.1369249746
H  H40  1  0.37530000  0.18890000  0.65630000  1.0 0.0991752992
H  H41  1  0.75530000  0.44790000  0.93020000  1.0 0.1083443959
H  H42  1  0.80890000  0.19950000  0.07390000  1.0 0.1204278481
H  H43  1  0.56180000  0.08820000  0.86940000  1.0 0.1204278481
H  H44  1  0.49570000  0.89050000  0.91000000  1.0 0.12744009
H  H45  1  0.45370000  0.69370000  0.94410000  1.0 0.0991752992
H  H46  1  0.73010000  0.83170000  0.12450000  1.0 0.0991752992
H  H47  1  0.82240000  0.05820000  0.06950000  1.0 0.1369249746
H  H48  1  0.06850000  0.80670000  0.11510000  1.0 0.1369249746
H  H49  1  0.21230000  0.86070000  0.23370000  1.0 0.1083443959
H  H50  1  0.24900000  0.71840000  0.31040000  1.0 0.1083443959
H  H51  1  0.14080000  0.51520000  0.27060000  1.0 0.1204278481
H  H52  1  0.87410000  0.56470000  0.02590000  1.0 0.2815860708
H  H53  1  0.52320000  0.49220000  0.72680000  1.0 0.0679586207
H  H54  1  0.61820000  0.44740000  0.84000000  1.0 0.1083443959
H  H55  1  0.57650000  0.64830000  0.80660000  1.0 0.0878648919
H  H56  1  0.52300000  0.74800000  0.69080000  1.0 0.1204278481
H  H57  1  0.13040000  0.46040000  0.72960000  1.0 0.1369249746
H  H58  1  0.18890000  0.37530000  0.84370000  1.0 0.0991752992
H  H59  1  0.44790000  0.75530000  0.56980000  1.0 0.1083443959
H  H60  1  0.19950000  0.80890000  0.42610000  1.0 0.1204278481
H  H61  1  0.08820000  0.56180000  0.63060000  1.0 0.1204278481
H  H62  1  0.89050000  0.49570000  0.59000000  1.0 0.12744009
H  H63  1  0.69370000  0.45370000  0.55590000  1.0 0.0991752992
H  H64  1  0.83170000  0.73010000  0.37550000  1.0 0.0991752992
H  H65  1  0.05820000  0.82240000  0.43050000  1.0 0.1369249746
H  H66  1  0.80670000  0.06850000  0.38490000  1.0 0.1369249746
H  H67  1  0.86070000  0.21230000  0.26630000  1.0 0.1083443959
H  H68  1  0.71840000  0.24900000  0.18960000  1.0 0.1083443959
H  H69  1  0.51520000  0.14080000  0.22940000  1.0 0.1204278481
H  H70  1  0.56470000  0.87410000  0.47410000  1.0 0.2815860708
H  H71  1  0.49220000  0.52320000  0.77320000  1.0 0.0679586207
H  H72  1  0.44740000  0.61820000  0.66000000  1.0 0.1083443959
C  C1  1  0.39290000  0.51510000  0.28900000  1.0 0.0191386373
C  C2  1  0.33640000  0.54760000  0.21820000  1.0 -0.0278970121
C  C3  1  0.41260000  0.69380000  0.18890000  1.0 0.0774132817
C  C4  1  0.50620000  0.78060000  0.24070000  1.0 -0.2327269713
C  C5  1  0.55570000  0.74370000  0.31070000  1.0 -0.0169187111
C  C6  1  0.35180000  0.72840000  0.11210000  1.0 0.0774132817
C  C7  1  0.26250000  0.63310000  0.05880000  1.0 -0.2143677573
C  C8  1  0.19980000  0.65820000  0.98950000  1.0 0.039748973
C  C9  1  0.23050000  0.78190000  0.97330000  1.0 -0.1793995077
C  C10  1  0.31820000  0.87760000  0.02530000  1.0 0.0878648919
C  C11  1  0.37840000  0.84840000  0.09490000  1.0 -0.1871792588
C  C12  1  0.34660000  0.00720000  0.00670000  1.0 0.1083443959
C  C13  1  0.44930000  0.11530000  0.04720000  1.0 -0.2035782288
C  C14  1  0.47380000  0.23460000  0.02580000  1.0 0.0611064288
C  C15  1  0.30880000  0.15320000  0.92440000  1.0 0.0611064288
C  C16  1  0.26410000  0.02010000  0.95130000  1.0 -0.2035782288
C  C17  1  0.10460000  0.55920000  0.93210000  1.0 0.2815860708
C  C18  1  0.98590000  0.37790000  0.87580000  1.0 0.12744009
C  C19  1  0.91847000  0.25180000  0.85380000  1.0 -0.1871792588
C  C20  1  0.83280000  0.22060000  0.78370000  1.0 -0.0966202623
C  C21  1  0.81000000  0.30680000  0.73680000  1.0 -0.1300734977
C  C22  1  0.87410000  0.42770000  0.76010000  1.0 -0.1871792588
C  C23  1  0.96240000  0.46240000  0.83110000  1.0 0.12744009
C  C24  1  0.47000000  0.57000000  0.27000000  1.0 0.039748973
C  C25  1  0.41710000  0.60090000  0.20060000  1.0 -0.0739197384
C  C26  1  0.51510000  0.39290000  0.21100000  1.0 0.0191386373
C  C27  1  0.54760000  0.33640000  0.28180000  1.0 -0.0278970121
C  C28  1  0.69380000  0.41260000  0.31110000  1.0 0.0774132817
C  C29  1  0.78060000  0.50620000  0.25930000  1.0 -0.2327269713
C  C30  1  0.74370000  0.55570000  0.18930000  1.0 -0.0169187111
C  C31  1  0.72840000  0.35180000  0.38790000  1.0 0.0774132817
C  C32  1  0.63310000  0.26250000  0.44120000  1.0 -0.2143677573
C  C33  1  0.65820000  0.19980000  0.51050000  1.0 0.039748973
C  C34  1  0.78190000  0.23050000  0.52670000  1.0 -0.1793995077
C  C35  1  0.87760000  0.31820000  0.47470000  1.0 0.0878648919
C  C36  1  0.84840000  0.37840000  0.40510000  1.0 -0.1871792588
C  C37  1  0.00720000  0.34660000  0.49330000  1.0 0.1083443959
C  C38  1  0.11530000  0.44930000  0.45280000  1.0 -0.2035782288
C  C39  1  0.23460000  0.47380000  0.47420000  1.0 0.0611064288
C  C40  1  0.15320000  0.30880000  0.57560000  1.0 0.0611064288
C  C41  1  0.02010000  0.26410000  0.54870000  1.0 -0.2035782288
C  C42  1  0.55920000  0.10460000  0.56790000  1.0 0.2815860708
C  C43  1  0.37790000  0.98590000  0.62420000  1.0 0.12744009
C  C44  1  0.25180000  0.91847000  0.64620000  1.0 -0.1871792588
C  C45  1  0.22060000  0.83280000  0.71630000  1.0 -0.0966202623
C  C46  1  0.30680000  0.81000000  0.76320000  1.0 -0.1300734977
C  C47  1  0.42770000  0.87410000  0.73990000  1.0 -0.1871792588
C  C48  1  0.46240000  0.96240000  0.66890000  1.0 0.12744009
C  C49  1  0.57000000  0.47000000  0.23000000  1.0 0.039748973
C  C50  1  0.60090000  0.41710000  0.29940000  1.0 -0.0739197384
C  C51  1  0.60710000  0.48490000  0.71100000  1.0 0.0191386373
C  C52  1  0.66360000  0.45240000  0.78180000  1.0 -0.0278970121
C  C53  1  0.58740000  0.30620000  0.81110000  1.0 0.0774132817
C  C54  1  0.49380000  0.21940000  0.75930000  1.0 -0.2327269713
C  C55  1  0.44430000  0.25630000  0.68930000  1.0 -0.0169187111
C  C56  1  0.64820000  0.27160000  0.88790000  1.0 0.0774132817
C  C57  1  0.73750000  0.36690000  0.94120000  1.0 -0.2143677573
C  C58  1  0.80020000  0.34180000  0.01050000  1.0 0.039748973
C  C59  1  0.76950000  0.21810000  0.02670000  1.0 -0.1793995077
C  C60  1  0.68180000  0.12240000  0.97470000  1.0 0.0878648919
C  C61  1  0.62160000  0.15160000  0.90510000  1.0 -0.1871792588
C  C62  1  0.65340000  0.99280000  0.99330000  1.0 0.1083443959
C  C63  1  0.55070000  0.88470000  0.95280000  1.0 -0.2035782288
C  C64  1  0.52620000  0.76540000  0.97420000  1.0 0.0611064288
C  C65  1  0.69120000  0.84680000  0.07560000  1.0 0.0611064288
C  C66  1  0.73590000  0.97990000  0.04870000  1.0 -0.2035782288
C  C67  1  0.89540000  0.44080000  0.06790000  1.0 0.2815860708
C  C68  1  0.01410000  0.62210000  0.12420000  1.0 0.12744009
C  C69  1  0.08153000  0.74820000  0.14620000  1.0 -0.1871792588
C  C70  1  0.16720000  0.77940000  0.21630000  1.0 -0.0966202623
C  C71  1  0.19000000  0.69320000  0.26320000  1.0 -0.1300734977
C  C72  1  0.12590000  0.57230000  0.23990000  1.0 -0.1871792588
C  C73  1  0.03760000  0.53760000  0.16890000  1.0 0.12744009
C  C74  1  0.53000000  0.43000000  0.73000000  1.0 0.039748973
C  C75  1  0.58290000  0.39910000  0.79940000  1.0 -0.0739197384
C  C76  1  0.48490000  0.60710000  0.78900000  1.0 0.0191386373
C  C77  1  0.45240000  0.66360000  0.71820000  1.0 -0.0278970121
C  C78  1  0.30620000  0.58740000  0.68890000  1.0 0.0774132817
C  C79  1  0.21940000  0.49380000  0.74070000  1.0 -0.2327269713
C  C80  1  0.25630000  0.44430000  0.81070000  1.0 -0.0169187111
C  C81  1  0.27160000  0.64820000  0.61210000  1.0 0.0774132817
C  C82  1  0.36690000  0.73750000  0.55880000  1.0 -0.2143677573
C  C83  1  0.34180000  0.80020000  0.48950000  1.0 0.039748973
C  C84  1  0.21810000  0.76950000  0.47330000  1.0 -0.1793995077
C  C85  1  0.12240000  0.68180000  0.52530000  1.0 0.0878648919
C  C86  1  0.15160000  0.62160000  0.59490000  1.0 -0.1871792588
C  C87  1  0.99280000  0.65340000  0.50670000  1.0 0.1083443959
C  C88  1  0.88470000  0.55070000  0.54720000  1.0 -0.2035782288
C  C89  1  0.76540000  0.52620000  0.52580000  1.0 0.0611064288
C  C90  1  0.84680000  0.69120000  0.42440000  1.0 0.0611064288
C  C91  1  0.97990000  0.73590000  0.45130000  1.0 -0.2035782288
C  C92  1  0.44080000  0.89540000  0.43210000  1.0 0.2815860708
C  C93  1  0.62210000  0.01410000  0.37580000  1.0 0.12744009
C  C94  1  0.74820000  0.08153000  0.35380000  1.0 -0.1871792588
C  C95  1  0.77940000  0.16720000  0.28370000  1.0 -0.0966202623
C  C96  1  0.69320000  0.19000000  0.23680000  1.0 -0.1300734977
C  C97  1  0.57230000  0.12590000  0.26010000  1.0 -0.1871792588
C  C98  1  0.53760000  0.03760000  0.33110000  1.0 0.12744009
C  C99  1  0.43000000  0.53000000  0.77000000  1.0 0.039748973
C  C100  1  0.39910000  0.58290000  0.70060000  1.0 -0.0739197384
I  I1  1  0.71972000  0.64204000  0.96362000  1.0 -0.48295332
I  I2  1  0.64204000  0.71972000  0.53638000  1.0 -0.48295332
I  I3  1  0.28028000  0.35796000  0.03638000  1.0 -0.48295332
I  I4  1  0.35796000  0.28028000  0.46362000  1.0 -0.48295332
N  N1  1  0.51340000  0.62220000  0.33380000  1.0 -0.1652006234
N  N2  1  0.40470000  0.25670000  0.96700000  1.0 -0.1871792588
N  N3  1  0.03830000  0.57610000  0.86750000  1.0 -0.4118750493
N  N4  1  0.07570000  0.44050000  0.93950000  1.0 -0.2773227642
N  N5  1  0.62220000  0.51340000  0.16620000  1.0 -0.1652006234
N  N6  1  0.25670000  0.40470000  0.53300000  1.0 -0.1871792588
N  N7  1  0.57610000  0.03830000  0.63250000  1.0 -0.4118750493
N  N8  1  0.44050000  0.07570000  0.56050000  1.0 -0.2773227642
N  N9  1  0.48660000  0.37780000  0.66620000  1.0 -0.1652006234
N  N10  1  0.59530000  0.74330000  0.03300000  1.0 -0.1871792588
N  N11  1  0.96170000  0.42390000  0.13250000  1.0 -0.4118750493
N  N12  1  0.92430000  0.55950000  0.06050000  1.0 -0.2773227642
N  N13  1  0.37780000  0.48660000  0.83380000  1.0 -0.1652006234
N  N14  1  0.74330000  0.59530000  0.46700000  1.0 -0.1871792588
N  N15  1  0.42390000  0.96170000  0.36750000  1.0 -0.4118750493
N  N16  1  0.55950000  0.92430000  0.43950000  1.0 -0.2773227642
