# DDEC6 charges by PACMAN v1.1 (https://github.com/mtap-research/PACMAN-charge/)
data_WEYQAU10_FSR_pacman
_symmetry_space_group_name_H-M   'P 1'
_cell_length_a   12.53660000
_cell_length_b   15.04010000
_cell_length_c   16.53200000
_cell_angle_alpha   90.00000000
_cell_angle_beta   90.00000000
_cell_angle_gamma   90.00000000
_symmetry_Int_Tables_number   1
_chemical_formula_structural   Mn(C3O2)3
_chemical_formula_sum   'Mn8 C72 O48'
_cell_volume   3117.13699636
_cell_formula_units_Z   8
loop_
 _symmetry_equiv_pos_site_id
 _symmetry_equiv_pos_as_xyz
  1  'x, y, z'
loop_
 _atom_site_type_symbol
 _atom_site_label
 _atom_site_symmetry_multiplicity
 _atom_site_fract_x
 _atom_site_fract_y
 _atom_site_fract_z
 _atom_site_occupancy
 _atom_site_charge
Mn  Mn1  1  0.51282000  0.39620000  0.58350000  1.0 1.0460229892
Mn  Mn2  1  0.48718000  0.10380000  0.08350000  1.0 1.043822803
Mn  Mn3  1  0.98718000  0.89620000  0.41650000  1.0 1.0460229892
Mn  Mn4  1  0.01282000  0.60380000  0.91650000  1.0 1.043822803
Mn  Mn5  1  0.48718000  0.60380000  0.41650000  1.0 1.043822803
Mn  Mn6  1  0.51282000  0.89620000  0.91650000  1.0 1.0460229892
Mn  Mn7  1  0.01282000  0.10380000  0.58350000  1.0 1.043822803
Mn  Mn8  1  0.98718000  0.39620000  0.08350000  1.0 1.0460229892
C  C1  1  0.59470000  0.36670000  0.72460000  1.0 0.5810111914
C  C2  1  0.40530000  0.13330000  0.22460000  1.0 0.5810111914
C  C3  1  0.90530000  0.86670000  0.27540000  1.0 0.5810111914
C  C4  1  0.09470000  0.63330000  0.77540000  1.0 0.5810111914
C  C5  1  0.40530000  0.63330000  0.27540000  1.0 0.5810111914
C  C6  1  0.59470000  0.86670000  0.77540000  1.0 0.5810111914
C  C7  1  0.09470000  0.13330000  0.72460000  1.0 0.5810111914
C  C8  1  0.90530000  0.36670000  0.22460000  1.0 0.5810111914
C  C9  1  0.63660000  0.36050000  0.80980000  1.0 -0.0563712005
C  C10  1  0.36340000  0.13950000  0.30980000  1.0 -0.0513931607
C  C11  1  0.86340000  0.86050000  0.19020000  1.0 -0.0513931607
C  C12  1  0.13660000  0.63950000  0.69020000  1.0 -0.0513931607
C  C13  1  0.36340000  0.63950000  0.19020000  1.0 -0.0513931607
C  C14  1  0.63660000  0.86050000  0.69020000  1.0 -0.0513931607
C  C15  1  0.13660000  0.13950000  0.80980000  1.0 -0.0513931607
C  C16  1  0.86340000  0.36050000  0.30980000  1.0 -0.0563712005
C  C17  1  0.72710000  0.40850000  0.83260000  1.0 0.0810814067
C  C18  1  0.27290000  0.09150000  0.33260000  1.0 0.0810814067
C  C19  1  0.77290000  0.90850000  0.16740000  1.0 0.0810814067
C  C20  1  0.22710000  0.59150000  0.66740000  1.0 0.0810814067
C  C21  1  0.27290000  0.59150000  0.16740000  1.0 0.0810814067
C  C22  1  0.72710000  0.90850000  0.66740000  1.0 0.0810814067
C  C23  1  0.22710000  0.09150000  0.83260000  1.0 0.0810814067
C  C24  1  0.77290000  0.40850000  0.33260000  1.0 0.0810814067
C  C25  1  0.58750000  0.30660000  0.86710000  1.0 0.0611979322
C  C26  1  0.41250000  0.19340000  0.36710000  1.0 0.0611979322
C  C27  1  0.91250000  0.80660000  0.13290000  1.0 0.0611979322
C  C28  1  0.08750000  0.69340000  0.63290000  1.0 0.0611979322
C  C29  1  0.41250000  0.69340000  0.13290000  1.0 0.0611979322
C  C30  1  0.58750000  0.80660000  0.63290000  1.0 0.0611979322
C  C31  1  0.08750000  0.19340000  0.86710000  1.0 0.0611979322
C  C32  1  0.91250000  0.30660000  0.36710000  1.0 0.0611979322
C  C33  1  0.76770000  0.40370000  0.91060000  1.0 -0.0690157093
C  C34  1  0.23230000  0.09630000  0.41060000  1.0 -0.0690157093
C  C35  1  0.73230000  0.90370000  0.08940000  1.0 -0.0690157093
C  C36  1  0.26770000  0.59630000  0.58940000  1.0 -0.0690157093
C  C37  1  0.23230000  0.59630000  0.08940000  1.0 -0.0690157093
C  C38  1  0.76770000  0.90370000  0.58940000  1.0 -0.0690157093
C  C39  1  0.26770000  0.09630000  0.91060000  1.0 -0.0690157093
C  C40  1  0.73230000  0.40370000  0.41060000  1.0 -0.0690157093
C  C41  1  0.63020000  0.29820000  0.94440000  1.0 -0.0513931607
C  C42  1  0.36980000  0.20180000  0.44440000  1.0 -0.0513931607
C  C43  1  0.86980000  0.79820000  0.05560000  1.0 -0.0513931607
C  C44  1  0.13020000  0.70180000  0.55560000  1.0 -0.0513931607
C  C45  1  0.36980000  0.70180000  0.05560000  1.0 -0.0513931607
C  C46  1  0.63020000  0.79820000  0.55560000  1.0 -0.0513931607
C  C47  1  0.13020000  0.20180000  0.94440000  1.0 -0.0513931607
C  C48  1  0.86980000  0.29820000  0.44440000  1.0 -0.0513931607
C  C49  1  0.86020000  0.46120000  0.93380000  1.0 0.6469949264
C  C50  1  0.13980000  0.03880000  0.43380000  1.0 0.6469949264
C  C51  1  0.63980000  0.96120000  0.06620000  1.0 0.6469949264
C  C52  1  0.36020000  0.53880000  0.56620000  1.0 0.6469949264
C  C53  1  0.13980000  0.53880000  0.06620000  1.0 0.6469949264
C  C54  1  0.86020000  0.96120000  0.56620000  1.0 0.6469949264
C  C55  1  0.36020000  0.03880000  0.93380000  1.0 0.6469949264
C  C56  1  0.63980000  0.46120000  0.43380000  1.0 0.6469949264
C  C57  1  0.71930000  0.34770000  0.96550000  1.0 0.0872338791
C  C58  1  0.28070000  0.15230000  0.46550000  1.0 0.0810814067
C  C59  1  0.78070000  0.84770000  0.03450000  1.0 0.0810814067
C  C60  1  0.21930000  0.65230000  0.53450000  1.0 0.0810814067
C  C61  1  0.28070000  0.65230000  0.03450000  1.0 0.0810814067
C  C62  1  0.71930000  0.84770000  0.53450000  1.0 0.0810814067
C  C63  1  0.21930000  0.15230000  0.96550000  1.0 0.0810814067
C  C64  1  0.78070000  0.34770000  0.46550000  1.0 0.0872338791
C  C65  1  0.57960000  0.23120000  0.00190000  1.0 0.5945989866
C  C66  1  0.42040000  0.26880000  0.50190000  1.0 0.5960697908
C  C67  1  0.92040000  0.73120000  0.99810000  1.0 0.5960697908
C  C68  1  0.07960000  0.76880000  0.49810000  1.0 0.5960697908
C  C69  1  0.42040000  0.76880000  0.99810000  1.0 0.5960697908
C  C70  1  0.57960000  0.73120000  0.49810000  1.0 0.5960697908
C  C71  1  0.07960000  0.26880000  0.00190000  1.0 0.5960697908
C  C72  1  0.92040000  0.23120000  0.50190000  1.0 0.5945989866
O  O1  1  0.64460000  0.40720000  0.67340000  1.0 -0.4573799592
O  O2  1  0.35540000  0.09280000  0.17340000  1.0 -0.4573799592
O  O3  1  0.85540000  0.90720000  0.32660000  1.0 -0.4573799592
O  O4  1  0.14460000  0.59280000  0.82660000  1.0 -0.4573799592
O  O5  1  0.35540000  0.59280000  0.32660000  1.0 -0.4573799592
O  O6  1  0.64460000  0.90720000  0.82660000  1.0 -0.4573799592
O  O7  1  0.14460000  0.09280000  0.67340000  1.0 -0.4573799592
O  O8  1  0.85540000  0.40720000  0.17340000  1.0 -0.4573799592
O  O9  1  0.50670000  0.33200000  0.70970000  1.0 -0.47856833
O  O10  1  0.49330000  0.16800000  0.20970000  1.0 -0.47856833
O  O11  1  0.99330000  0.83200000  0.29030000  1.0 -0.47856833
O  O12  1  0.00670000  0.66800000  0.79030000  1.0 -0.47856833
O  O13  1  0.49330000  0.66800000  0.29030000  1.0 -0.47856833
O  O14  1  0.50670000  0.83200000  0.79030000  1.0 -0.47856833
O  O15  1  0.00670000  0.16800000  0.70970000  1.0 -0.47856833
O  O16  1  0.99330000  0.33200000  0.20970000  1.0 -0.47856833
O  O17  1  0.61920000  0.47130000  0.50790000  1.0 -0.5374851744
O  O18  1  0.38080000  0.02870000  0.00790000  1.0 -0.5374851744
O  O19  1  0.88080000  0.97130000  0.49210000  1.0 -0.5374851744
O  O20  1  0.11920000  0.52870000  0.99210000  1.0 -0.5374851744
O  O21  1  0.38080000  0.52870000  0.49210000  1.0 -0.5374851744
O  O22  1  0.61920000  0.97130000  0.99210000  1.0 -0.5374851744
O  O23  1  0.11920000  0.02870000  0.50790000  1.0 -0.5374851744
O  O24  1  0.88080000  0.47130000  0.00790000  1.0 -0.5374851744
O  O25  1  0.41080000  0.50010000  0.62165000  1.0 -0.4897587426
O  O26  1  0.58920000  0.99990000  0.12165000  1.0 -0.4897587426
O  O27  1  0.08920000  0.00010000  0.37835000  1.0 -0.4897587426
O  O28  1  0.91080000  0.49990000  0.87835000  1.0 -0.4897587426
O  O29  1  0.58920000  0.49990000  0.37835000  1.0 -0.4897587426
O  O30  1  0.41080000  0.00010000  0.87835000  1.0 -0.4897587426
O  O31  1  0.91080000  0.99990000  0.62165000  1.0 -0.4897587426
O  O32  1  0.08920000  0.50010000  0.12165000  1.0 -0.4897587426
O  O33  1  0.36460000  0.30020000  0.55690000  1.0 -0.4675324779
O  O34  1  0.63540000  0.19980000  0.05690000  1.0 -0.4675324779
O  O35  1  0.13540000  0.80020000  0.44310000  1.0 -0.4675324779
O  O36  1  0.86460000  0.69980000  0.94310000  1.0 -0.4675324779
O  O37  1  0.63540000  0.69980000  0.44310000  1.0 -0.4675324779
O  O38  1  0.36460000  0.80020000  0.94310000  1.0 -0.4675324779
O  O39  1  0.86460000  0.19980000  0.55690000  1.0 -0.4675324779
O  O40  1  0.13540000  0.30020000  0.05690000  1.0 -0.4675324779
O  O41  1  0.51120000  0.29310000  0.49060000  1.0 -0.4897587426
O  O42  1  0.48880000  0.20690000  0.99060000  1.0 -0.4897587426
O  O43  1  0.98880000  0.79310000  0.50940000  1.0 -0.4897587426
O  O44  1  0.01120000  0.70690000  0.00940000  1.0 -0.4897587426
O  O45  1  0.48880000  0.70690000  0.50940000  1.0 -0.4897587426
O  O46  1  0.51120000  0.79310000  0.00940000  1.0 -0.4897587426
O  O47  1  0.01120000  0.20690000  0.49060000  1.0 -0.4897587426
O  O48  1  0.98880000  0.29310000  0.99060000  1.0 -0.4897587426
