# DDEC6 charges by PACMAN v1.1 (https://github.com/mtap-research/PACMAN-charge/)
data_WEYRAW_ASR_pacman
_symmetry_space_group_name_H-M   'P 1'
_cell_length_a   25.27950000
_cell_length_b   25.27950000
_cell_length_c   19.44030000
_cell_angle_alpha   90.00000000
_cell_angle_beta   90.00000000
_cell_angle_gamma   121.81400000
_symmetry_Int_Tables_number   1
_chemical_formula_structural   Zr3H35C46NO16
_chemical_formula_sum   'Zr12 H140 C184 N4 O64'
_cell_volume   10556.94365621
_cell_formula_units_Z   4
loop_
 _symmetry_equiv_pos_site_id
 _symmetry_equiv_pos_as_xyz
  1  'x, y, z'
loop_
 _atom_site_type_symbol
 _atom_site_label
 _atom_site_symmetry_multiplicity
 _atom_site_fract_x
 _atom_site_fract_y
 _atom_site_fract_z
 _atom_site_occupancy
 _atom_site_charge
Zr  Zr1  1  0.08012000  0.00058000  0.57415000  1.0 2.2860872824
Zr  Zr2  1  0.99942000  0.91988000  0.42585000  1.0 2.2860872824
Zr  Zr3  1  0.91988000  0.99942000  0.42585000  1.0 2.2860872824
Zr  Zr4  1  0.00058000  0.08012000  0.57415000  1.0 2.2860872824
Zr  Zr5  1  0.91644000  0.91644000  0.57021000  1.0 2.248433453
Zr  Zr6  1  0.08356000  0.08356000  0.42979000  1.0 2.248433453
Zr  Zr7  1  0.41988000  0.49942000  0.07415000  1.0 2.2860872824
Zr  Zr8  1  0.50058000  0.58012000  0.92585000  1.0 2.2860872824
Zr  Zr9  1  0.58012000  0.50058000  0.92585000  1.0 2.2860872824
Zr  Zr10  1  0.49942000  0.41988000  0.07415000  1.0 2.2849429073
Zr  Zr11  1  0.58356000  0.58356000  0.07021000  1.0 2.248433453
Zr  Zr12  1  0.41644000  0.41644000  0.92979000  1.0 2.248433453
H  H1  1  0.18271000  0.90187000  0.58809000  1.0 0.1386151255
H  H2  1  0.23592000  0.85122000  0.58409000  1.0 0.1179920274
H  H3  1  0.34939000  0.76855000  0.57097000  1.0 0.1302731016
H  H4  1  0.95746000  0.88334000  0.65630000  1.0 0.411033419
H  H5  1  0.40104000  0.64948000  0.56703000  1.0 0.1386151255
H  H6  1  0.07475000  0.96663000  0.69573000  1.0 0.4223235668
H  H7  1  0.40789000  0.77973000  0.45087000  1.0 0.1302731016
H  H8  1  0.51534000  0.83546000  0.45437000  1.0 0.1179920274
H  H9  1  0.50791000  0.69985000  0.56059000  1.0 0.1179920274
H  H10  1  0.60788000  0.86190000  0.42516000  1.0 0.1179920274
H  H11  1  0.71452000  0.90846000  0.41784000  1.0 0.1386151255
H  H12  1  0.71040000  0.80464000  0.57039000  1.0 0.1302731016
H  H13  1  0.60188000  0.75478000  0.57507000  1.0 0.1179920274
H  H14  1  0.12300000  0.21544000  0.73739000  1.0 0.1302731016
H  H15  1  0.19610000  0.28078000  0.80977000  1.0 0.1302731016
H  H16  1  0.29649000  0.82191000  0.57336000  1.0 0.1179920274
H  H17  1  0.09813000  0.81729000  0.41191000  1.0 0.1386151255
H  H18  1  0.14878000  0.76408000  0.41591000  1.0 0.1179920274
H  H19  1  0.23145000  0.65061000  0.42903000  1.0 0.1302731016
H  H20  1  0.11666000  0.04254000  0.34370000  1.0 0.411033419
H  H21  1  0.35052000  0.59896000  0.43297000  1.0 0.1386151255
H  H22  1  0.03337000  0.92525000  0.30427000  1.0 0.4223235668
H  H23  1  0.22027000  0.59211000  0.54913000  1.0 0.1302731016
H  H24  1  0.16454000  0.48466000  0.54563000  1.0 0.1179920274
H  H25  1  0.30015000  0.49209000  0.43941000  1.0 0.1179920274
H  H26  1  0.13810000  0.39212000  0.57484000  1.0 0.1179920274
H  H27  1  0.09154000  0.28548000  0.58216000  1.0 0.1386151255
H  H28  1  0.19536000  0.28960000  0.42961000  1.0 0.1302731016
H  H29  1  0.24522000  0.39812000  0.42493000  1.0 0.1179920274
H  H30  1  0.78456000  0.87700000  0.26261000  1.0 0.1302731016
H  H31  1  0.71922000  0.80390000  0.19023000  1.0 0.1302731016
H  H32  1  0.17809000  0.70351000  0.42664000  1.0 0.1179920274
H  H33  1  0.81729000  0.09813000  0.41191000  1.0 0.1386151255
H  H34  1  0.76408000  0.14878000  0.41591000  1.0 0.1179920274
H  H35  1  0.65061000  0.23145000  0.42903000  1.0 0.1302731016
H  H36  1  0.04254000  0.11666000  0.34370000  1.0 0.411033419
H  H37  1  0.59896000  0.35052000  0.43297000  1.0 0.1386151255
H  H38  1  0.92525000  0.03337000  0.30427000  1.0 0.4223235668
H  H39  1  0.59211000  0.22027000  0.54913000  1.0 0.1302731016
H  H40  1  0.48466000  0.16454000  0.54563000  1.0 0.1179920274
H  H41  1  0.49209000  0.30015000  0.43941000  1.0 0.1179920274
H  H42  1  0.39212000  0.13810000  0.57484000  1.0 0.1179920274
H  H43  1  0.28548000  0.09154000  0.58216000  1.0 0.1386151255
H  H44  1  0.28960000  0.19536000  0.42961000  1.0 0.1302731016
H  H45  1  0.39812000  0.24522000  0.42493000  1.0 0.1179920274
H  H46  1  0.87700000  0.78456000  0.26261000  1.0 0.1302731016
H  H47  1  0.80390000  0.71922000  0.19023000  1.0 0.1302731016
H  H48  1  0.70351000  0.17809000  0.42664000  1.0 0.1179920274
H  H49  1  0.90187000  0.18271000  0.58809000  1.0 0.1386151255
H  H50  1  0.85122000  0.23592000  0.58409000  1.0 0.1179920274
H  H51  1  0.76855000  0.34939000  0.57097000  1.0 0.1302731016
H  H52  1  0.88334000  0.95746000  0.65630000  1.0 0.411033419
H  H53  1  0.64948000  0.40104000  0.56703000  1.0 0.1386151255
H  H54  1  0.96663000  0.07475000  0.69573000  1.0 0.4223235668
H  H55  1  0.77973000  0.40789000  0.45087000  1.0 0.1302731016
H  H56  1  0.83546000  0.51534000  0.45437000  1.0 0.1179920274
H  H57  1  0.69985000  0.50791000  0.56059000  1.0 0.1179920274
H  H58  1  0.86190000  0.60788000  0.42516000  1.0 0.1179920274
H  H59  1  0.90846000  0.71452000  0.41784000  1.0 0.1386151255
H  H60  1  0.80464000  0.71040000  0.57039000  1.0 0.1302731016
H  H61  1  0.75478000  0.60188000  0.57507000  1.0 0.1179920274
H  H62  1  0.21544000  0.12300000  0.73739000  1.0 0.1302731016
H  H63  1  0.28078000  0.19610000  0.80977000  1.0 0.1302731016
H  H64  1  0.82191000  0.29649000  0.57336000  1.0 0.1179920274
H  H65  1  0.89143000  0.89143000  0.44558000  1.0 0.3514153408
H  H66  1  0.27932000  0.27932000  0.85478000  1.0 0.1536598948
H  H67  1  0.99372000  0.99372000  0.58163000  1.0 0.220351656
H  H68  1  0.10857000  0.10857000  0.55442000  1.0 0.3514153408
H  H69  1  0.72068000  0.72068000  0.14522000  1.0 0.1536598948
H  H70  1  0.00628000  0.00628000  0.41837000  1.0 0.220351656
H  H71  1  0.31729000  0.59813000  0.08809000  1.0 0.1386151255
H  H72  1  0.26408000  0.64878000  0.08409000  1.0 0.1179920274
H  H73  1  0.15061000  0.73145000  0.07097000  1.0 0.1302731016
H  H74  1  0.54254000  0.61666000  0.15630000  1.0 0.411033419
H  H75  1  0.09896000  0.85052000  0.06703000  1.0 0.1386151255
H  H76  1  0.42525000  0.53337000  0.19573000  1.0 0.4223235668
H  H77  1  0.09211000  0.72027000  0.95087000  1.0 0.1302731016
H  H78  1  0.98466000  0.66454000  0.95437000  1.0 0.1179920274
H  H79  1  0.99209000  0.80015000  0.06059000  1.0 0.1179920274
H  H80  1  0.89212000  0.63810000  0.92516000  1.0 0.1179920274
H  H81  1  0.78548000  0.59154000  0.91784000  1.0 0.1386151255
H  H82  1  0.78960000  0.69536000  0.07039000  1.0 0.1302731016
H  H83  1  0.89812000  0.74522000  0.07507000  1.0 0.1179920274
H  H84  1  0.37700000  0.28456000  0.23739000  1.0 0.1302731016
H  H85  1  0.30390000  0.21922000  0.30977000  1.0 0.1302731016
H  H86  1  0.20351000  0.67809000  0.07336000  1.0 0.1179920274
H  H87  1  0.40187000  0.68271000  0.91191000  1.0 0.1386151255
H  H88  1  0.35122000  0.73592000  0.91591000  1.0 0.1179920274
H  H89  1  0.26855000  0.84939000  0.92903000  1.0 0.1302731016
H  H90  1  0.38334000  0.45746000  0.84370000  1.0 0.411033419
H  H91  1  0.14948000  0.90104000  0.93297000  1.0 0.1386151255
H  H92  1  0.46663000  0.57475000  0.80427000  1.0 0.4223235668
H  H93  1  0.27973000  0.90789000  0.04913000  1.0 0.1302731016
H  H94  1  0.33546000  0.01534000  0.04563000  1.0 0.1179920274
H  H95  1  0.19985000  0.00791000  0.93941000  1.0 0.1179920274
H  H96  1  0.36190000  0.10788000  0.07484000  1.0 0.1179920274
H  H97  1  0.40846000  0.21452000  0.08216000  1.0 0.1386151255
H  H98  1  0.30464000  0.21040000  0.92961000  1.0 0.1302731016
H  H99  1  0.25478000  0.10188000  0.92493000  1.0 0.1179920274
H  H100  1  0.71544000  0.62300000  0.76261000  1.0 0.1302731016
H  H101  1  0.78078000  0.69610000  0.69023000  1.0 0.1302731016
H  H102  1  0.32191000  0.79649000  0.92664000  1.0 0.1179920274
H  H103  1  0.68271000  0.40187000  0.91191000  1.0 0.1386151255
H  H104  1  0.73592000  0.35122000  0.91591000  1.0 0.1179920274
H  H105  1  0.84939000  0.26855000  0.92903000  1.0 0.1302731016
H  H106  1  0.45746000  0.38334000  0.84370000  1.0 0.411033419
H  H107  1  0.90104000  0.14948000  0.93297000  1.0 0.1386151255
H  H108  1  0.57475000  0.46663000  0.80427000  1.0 0.4223235668
H  H109  1  0.90789000  0.27973000  0.04913000  1.0 0.1302731016
H  H110  1  0.01534000  0.33546000  0.04563000  1.0 0.1179920274
H  H111  1  0.00791000  0.19985000  0.93941000  1.0 0.1179920274
H  H112  1  0.10788000  0.36190000  0.07484000  1.0 0.1179920274
H  H113  1  0.21452000  0.40846000  0.08216000  1.0 0.1386151255
H  H114  1  0.21040000  0.30464000  0.92961000  1.0 0.1302731016
H  H115  1  0.10188000  0.25478000  0.92493000  1.0 0.1179920274
H  H116  1  0.62300000  0.71544000  0.76261000  1.0 0.1302731016
H  H117  1  0.69610000  0.78078000  0.69023000  1.0 0.1302731016
H  H118  1  0.79649000  0.32191000  0.92664000  1.0 0.1179920274
H  H119  1  0.59813000  0.31729000  0.08809000  1.0 0.1386151255
H  H120  1  0.64878000  0.26408000  0.08409000  1.0 0.1179920274
H  H121  1  0.73145000  0.15061000  0.07097000  1.0 0.1302731016
H  H122  1  0.61666000  0.54254000  0.15630000  1.0 0.411033419
H  H123  1  0.85052000  0.09896000  0.06703000  1.0 0.1386151255
H  H124  1  0.53337000  0.42525000  0.19573000  1.0 0.4223235668
H  H125  1  0.72027000  0.09211000  0.95087000  1.0 0.1302731016
H  H126  1  0.66454000  0.98466000  0.95437000  1.0 0.1179920274
H  H127  1  0.80015000  0.99209000  0.06059000  1.0 0.1179920274
H  H128  1  0.63810000  0.89212000  0.92516000  1.0 0.1179920274
H  H129  1  0.59154000  0.78548000  0.91784000  1.0 0.1386151255
H  H130  1  0.69536000  0.78960000  0.07039000  1.0 0.1302731016
H  H131  1  0.74522000  0.89812000  0.07507000  1.0 0.1179920274
H  H132  1  0.28456000  0.37700000  0.23739000  1.0 0.1302731016
H  H133  1  0.21922000  0.30390000  0.30977000  1.0 0.1302731016
H  H134  1  0.67809000  0.20351000  0.07336000  1.0 0.1179920274
H  H135  1  0.60857000  0.60857000  0.94558000  1.0 0.3514153408
H  H136  1  0.22068000  0.22068000  0.35478000  1.0 0.1536598948
H  H137  1  0.50628000  0.50628000  0.08163000  1.0 0.220351656
H  H138  1  0.39143000  0.39143000  0.05442000  1.0 0.3514153408
H  H139  1  0.77932000  0.77932000  0.64522000  1.0 0.1536598948
H  H140  1  0.49372000  0.49372000  0.91837000  1.0 0.220351656
C  C1  1  0.17570000  0.87430000  0.55120000  1.0 -0.0895620737
C  C2  1  0.20660000  0.84320000  0.54890000  1.0 -0.1597783084
C  C3  1  0.31420000  0.75520000  0.54210000  1.0 -0.1799070357
C  C4  1  0.39354000  0.70646000  0.50170000  1.0 0.1536598948
C  C5  1  0.42370000  0.68570000  0.53930000  1.0 -0.1799070357
C  C6  1  0.52400000  0.77220000  0.50300000  1.0 0.0712654395
C  C7  1  0.59350000  0.80490000  0.50120000  1.0 0.0929547594
C  C8  1  0.42820000  0.76180000  0.47330000  1.0 -0.1877234662
C  C9  1  0.49300000  0.79520000  0.47450000  1.0 -0.1399256689
C  C10  1  0.48770000  0.71730000  0.53700000  1.0 -0.1513675386
C  C11  1  0.62800000  0.84920000  0.45630000  1.0 -0.1513675386
C  C12  1  0.69220000  0.87800000  0.45230000  1.0 -0.0895620737
C  C13  1  0.72289000  0.86331000  0.49670000  1.0 -0.0053697424
C  C14  1  0.68980000  0.81760000  0.54030000  1.0 -0.0992876649
C  C15  1  0.62450000  0.78770000  0.54310000  1.0 -0.1677273937
C  C16  1  0.79258000  0.89522000  0.49700000  1.0 0.6334340246
C  C17  1  0.15510000  0.20850000  0.75070000  1.0 -0.0895620737
C  C18  1  0.20050000  0.24750000  0.79520000  1.0 -0.0992876649
C  C19  1  0.28310000  0.78750000  0.54340000  1.0 -0.1399256689
C  C20  1  0.12570000  0.82430000  0.44880000  1.0 -0.0895620737
C  C21  1  0.15680000  0.79340000  0.45110000  1.0 -0.1597783084
C  C22  1  0.24480000  0.68580000  0.45790000  1.0 -0.1799070357
C  C23  1  0.29354000  0.60646000  0.49830000  1.0 0.1536598948
C  C24  1  0.31430000  0.57630000  0.46070000  1.0 -0.1799070357
C  C25  1  0.22780000  0.47600000  0.49700000  1.0 0.0712654395
C  C26  1  0.19510000  0.40650000  0.49880000  1.0 0.0929547594
C  C27  1  0.23820000  0.57180000  0.52670000  1.0 -0.1877234662
C  C28  1  0.20480000  0.50700000  0.52550000  1.0 -0.1399256689
C  C29  1  0.28270000  0.51230000  0.46300000  1.0 -0.1513675386
C  C30  1  0.15080000  0.37200000  0.54370000  1.0 -0.1513675386
C  C31  1  0.12200000  0.30780000  0.54770000  1.0 -0.0895620737
C  C32  1  0.13669000  0.27711000  0.50330000  1.0 -0.0044432245
C  C33  1  0.18240000  0.31020000  0.45970000  1.0 -0.0992876649
C  C34  1  0.21230000  0.37550000  0.45690000  1.0 -0.1677273937
C  C35  1  0.10478000  0.20742000  0.50300000  1.0 0.6334340246
C  C36  1  0.79150000  0.84490000  0.24930000  1.0 -0.0895620737
C  C37  1  0.75250000  0.79950000  0.20480000  1.0 -0.0992876649
C  C38  1  0.21250000  0.71690000  0.45660000  1.0 -0.1399256689
C  C39  1  0.82430000  0.12570000  0.44880000  1.0 -0.0895620737
C  C40  1  0.79340000  0.15680000  0.45110000  1.0 -0.1597783084
C  C41  1  0.68580000  0.24480000  0.45790000  1.0 -0.1677273937
C  C42  1  0.60646000  0.29354000  0.49830000  1.0 0.1536598948
C  C43  1  0.57630000  0.31430000  0.46070000  1.0 -0.1799070357
C  C44  1  0.47600000  0.22780000  0.49700000  1.0 0.0712654395
C  C45  1  0.40650000  0.19510000  0.49880000  1.0 0.0929547594
C  C46  1  0.57180000  0.23820000  0.52670000  1.0 -0.1877234662
C  C47  1  0.50700000  0.20480000  0.52550000  1.0 -0.1399256689
C  C48  1  0.51230000  0.28270000  0.46300000  1.0 -0.1513675386
C  C49  1  0.37200000  0.15080000  0.54370000  1.0 -0.1513675386
C  C50  1  0.30780000  0.12200000  0.54770000  1.0 -0.0895620737
C  C51  1  0.27711000  0.13669000  0.50330000  1.0 -0.0044432245
C  C52  1  0.31020000  0.18240000  0.45970000  1.0 -0.0992876649
C  C53  1  0.37550000  0.21230000  0.45690000  1.0 -0.1677273937
C  C54  1  0.20742000  0.10478000  0.50300000  1.0 0.6334340246
C  C55  1  0.84490000  0.79150000  0.24930000  1.0 -0.0895620737
C  C56  1  0.79950000  0.75250000  0.20480000  1.0 -0.0992876649
C  C57  1  0.71690000  0.21250000  0.45660000  1.0 -0.1399256689
C  C58  1  0.87430000  0.17570000  0.55120000  1.0 -0.0895620737
C  C59  1  0.84320000  0.20660000  0.54890000  1.0 -0.1597783084
C  C60  1  0.75520000  0.31420000  0.54210000  1.0 -0.1799070357
C  C61  1  0.70646000  0.39354000  0.50170000  1.0 0.1536598948
C  C62  1  0.68570000  0.42370000  0.53930000  1.0 -0.1799070357
C  C63  1  0.77220000  0.52400000  0.50300000  1.0 0.0712654395
C  C64  1  0.80490000  0.59350000  0.50120000  1.0 0.0929547594
C  C65  1  0.76180000  0.42820000  0.47330000  1.0 -0.1877234662
C  C66  1  0.79520000  0.49300000  0.47450000  1.0 -0.1399256689
C  C67  1  0.71730000  0.48770000  0.53700000  1.0 -0.1513675386
C  C68  1  0.84920000  0.62800000  0.45630000  1.0 -0.1513675386
C  C69  1  0.87800000  0.69220000  0.45230000  1.0 -0.0895620737
C  C70  1  0.86331000  0.72289000  0.49670000  1.0 -0.0053697424
C  C71  1  0.81760000  0.68980000  0.54030000  1.0 -0.0992876649
C  C72  1  0.78770000  0.62450000  0.54310000  1.0 -0.1677273937
C  C73  1  0.89522000  0.79258000  0.49700000  1.0 0.6334340246
C  C74  1  0.20850000  0.15510000  0.75070000  1.0 -0.0895620737
C  C75  1  0.24750000  0.20050000  0.79520000  1.0 -0.0992876649
C  C76  1  0.78750000  0.28310000  0.54340000  1.0 -0.1399256689
C  C77  1  0.10080000  0.89920000  0.50000000  1.0 0.6507746847
C  C78  1  0.13470000  0.86530000  0.50000000  1.0 -0.0332311364
C  C79  1  0.19780000  0.80220000  0.50000000  1.0 0.0806932309
C  C80  1  0.23200000  0.76800000  0.50000000  1.0 0.0806932309
C  C81  1  0.29510000  0.70490000  0.50000000  1.0 0.1616394231
C  C82  1  0.89920000  0.10080000  0.50000000  1.0 0.6507746847
C  C83  1  0.86530000  0.13470000  0.50000000  1.0 -0.0332311364
C  C84  1  0.80220000  0.19780000  0.50000000  1.0 0.0806932309
C  C85  1  0.76800000  0.23200000  0.50000000  1.0 0.0806932309
C  C86  1  0.70490000  0.29510000  0.50000000  1.0 0.1616394231
C  C87  1  0.11420000  0.11420000  0.67820000  1.0 0.543747318
C  C88  1  0.15700000  0.15700000  0.72470000  1.0 -0.0662652431
C  C89  1  0.24990000  0.24990000  0.82310000  1.0 -0.0895620737
C  C90  1  0.88580000  0.88580000  0.32180000  1.0 0.543747318
C  C91  1  0.84300000  0.84300000  0.27530000  1.0 -0.0662652431
C  C92  1  0.75010000  0.75010000  0.17690000  1.0 -0.0895620737
C  C93  1  0.32430000  0.62570000  0.05120000  1.0 -0.0895620737
C  C94  1  0.29340000  0.65680000  0.04890000  1.0 -0.1597783084
C  C95  1  0.18580000  0.74480000  0.04210000  1.0 -0.1799070357
C  C96  1  0.10646000  0.79354000  0.00170000  1.0 0.1536598948
C  C97  1  0.07630000  0.81430000  0.03930000  1.0 -0.1799070357
C  C98  1  0.97600000  0.72780000  0.00300000  1.0 0.0712654395
C  C99  1  0.90650000  0.69510000  0.00120000  1.0 0.0929547594
C  C100  1  0.07180000  0.73820000  0.97330000  1.0 -0.1877234662
C  C101  1  0.00700000  0.70480000  0.97450000  1.0 -0.1399256689
C  C102  1  0.01230000  0.78270000  0.03700000  1.0 -0.1513675386
C  C103  1  0.87200000  0.65080000  0.95630000  1.0 -0.1513675386
C  C104  1  0.80780000  0.62200000  0.95230000  1.0 -0.0895620737
C  C105  1  0.77711000  0.63669000  0.99670000  1.0 -0.0053697424
C  C106  1  0.81020000  0.68240000  0.04030000  1.0 -0.0895620737
C  C107  1  0.87550000  0.71230000  0.04310000  1.0 -0.1677273937
C  C108  1  0.70742000  0.60478000  0.99700000  1.0 0.6334340246
C  C109  1  0.34490000  0.29150000  0.25070000  1.0 -0.0895620737
C  C110  1  0.29950000  0.25250000  0.29520000  1.0 -0.0992876649
C  C111  1  0.21690000  0.71250000  0.04340000  1.0 -0.1399256689
C  C112  1  0.37430000  0.67570000  0.94880000  1.0 -0.0895620737
C  C113  1  0.34320000  0.70660000  0.95110000  1.0 -0.1597783084
C  C114  1  0.25520000  0.81420000  0.95790000  1.0 -0.1799070357
C  C115  1  0.20646000  0.89354000  0.99830000  1.0 0.1536598948
C  C116  1  0.18570000  0.92370000  0.96070000  1.0 -0.1799070357
C  C117  1  0.27220000  0.02400000  0.99700000  1.0 0.0712654395
C  C118  1  0.30490000  0.09350000  0.99880000  1.0 0.0929547594
C  C119  1  0.26180000  0.92820000  0.02670000  1.0 -0.1877234662
C  C120  1  0.29520000  0.99300000  0.02550000  1.0 -0.1399256689
C  C121  1  0.21730000  0.98770000  0.96300000  1.0 -0.1513675386
C  C122  1  0.34920000  0.12800000  0.04370000  1.0 -0.1513675386
C  C123  1  0.37800000  0.19220000  0.04770000  1.0 -0.0895620737
C  C124  1  0.36331000  0.22289000  0.00330000  1.0 -0.0044432245
C  C125  1  0.31760000  0.18980000  0.95970000  1.0 -0.0992876649
C  C126  1  0.28770000  0.12450000  0.95690000  1.0 -0.1677273937
C  C127  1  0.39522000  0.29258000  0.00300000  1.0 0.6334340246
C  C128  1  0.70850000  0.65510000  0.74930000  1.0 -0.0895620737
C  C129  1  0.74750000  0.70050000  0.70480000  1.0 -0.0992876649
C  C130  1  0.28750000  0.78310000  0.95660000  1.0 -0.1399256689
C  C131  1  0.67570000  0.37430000  0.94880000  1.0 -0.0895620737
C  C132  1  0.70660000  0.34320000  0.95110000  1.0 -0.1597783084
C  C133  1  0.81420000  0.25520000  0.95790000  1.0 -0.1799070357
C  C134  1  0.89354000  0.20646000  0.99830000  1.0 0.1536598948
C  C135  1  0.92370000  0.18570000  0.96070000  1.0 -0.1799070357
C  C136  1  0.02400000  0.27220000  0.99700000  1.0 0.0712654395
C  C137  1  0.09350000  0.30490000  0.99880000  1.0 0.0929547594
C  C138  1  0.92820000  0.26180000  0.02670000  1.0 -0.1877234662
C  C139  1  0.99300000  0.29520000  0.02550000  1.0 -0.1399256689
C  C140  1  0.98770000  0.21730000  0.96300000  1.0 -0.1513675386
C  C141  1  0.12800000  0.34920000  0.04370000  1.0 -0.1513675386
C  C142  1  0.19220000  0.37800000  0.04770000  1.0 -0.0895620737
C  C143  1  0.22289000  0.36331000  0.00330000  1.0 -0.0044432245
C  C144  1  0.18980000  0.31760000  0.95970000  1.0 -0.0992876649
C  C145  1  0.12450000  0.28770000  0.95690000  1.0 -0.1677273937
C  C146  1  0.29258000  0.39522000  0.00300000  1.0 0.6334340246
C  C147  1  0.65510000  0.70850000  0.74930000  1.0 -0.0895620737
C  C148  1  0.70050000  0.74750000  0.70480000  1.0 -0.0992876649
C  C149  1  0.78310000  0.28750000  0.95660000  1.0 -0.1399256689
C  C150  1  0.62570000  0.32430000  0.05120000  1.0 -0.0895620737
C  C151  1  0.65680000  0.29340000  0.04890000  1.0 -0.1597783084
C  C152  1  0.74480000  0.18580000  0.04210000  1.0 -0.1799070357
C  C153  1  0.79354000  0.10646000  0.00170000  1.0 0.1536598948
C  C154  1  0.81430000  0.07630000  0.03930000  1.0 -0.1799070357
C  C155  1  0.72780000  0.97600000  0.00300000  1.0 0.0712654395
C  C156  1  0.69510000  0.90650000  0.00120000  1.0 0.0929547594
C  C157  1  0.73820000  0.07180000  0.97330000  1.0 -0.1877234662
C  C158  1  0.70480000  0.00700000  0.97450000  1.0 -0.1399256689
C  C159  1  0.78270000  0.01230000  0.03700000  1.0 -0.1513675386
C  C160  1  0.65080000  0.87200000  0.95630000  1.0 -0.1513675386
C  C161  1  0.62200000  0.80780000  0.95230000  1.0 -0.0895620737
C  C162  1  0.63669000  0.77711000  0.99670000  1.0 -0.0053697424
C  C163  1  0.68240000  0.81020000  0.04030000  1.0 -0.0895620737
C  C164  1  0.71230000  0.87550000  0.04310000  1.0 -0.1677273937
C  C165  1  0.60478000  0.70742000  0.99700000  1.0 0.6334340246
C  C166  1  0.29150000  0.34490000  0.25070000  1.0 -0.0895620737
C  C167  1  0.25250000  0.29950000  0.29520000  1.0 -0.0992876649
C  C168  1  0.71250000  0.21690000  0.04340000  1.0 -0.1399256689
C  C169  1  0.39920000  0.60080000  0.00000000  1.0 0.6507746847
C  C170  1  0.36530000  0.63470000  0.00000000  1.0 -0.0332311364
C  C171  1  0.30220000  0.69780000  0.00000000  1.0 0.0806932309
C  C172  1  0.26800000  0.73200000  0.00000000  1.0 0.0806932309
C  C173  1  0.20490000  0.79510000  0.00000000  1.0 0.1616394231
C  C174  1  0.60080000  0.39920000  0.00000000  1.0 0.6507746847
C  C175  1  0.63470000  0.36530000  0.00000000  1.0 -0.0332311364
C  C176  1  0.69780000  0.30220000  0.00000000  1.0 0.0806932309
C  C177  1  0.73200000  0.26800000  0.00000000  1.0 0.0806932309
C  C178  1  0.79510000  0.20490000  0.00000000  1.0 0.1616394231
C  C179  1  0.38580000  0.38580000  0.17820000  1.0 0.543747318
C  C180  1  0.34300000  0.34300000  0.22470000  1.0 -0.0662652431
C  C181  1  0.25010000  0.25010000  0.32310000  1.0 -0.0895620737
C  C182  1  0.61420000  0.61420000  0.82180000  1.0 0.543747318
C  C183  1  0.65700000  0.65700000  0.77530000  1.0 -0.0662652431
C  C184  1  0.74990000  0.74990000  0.67690000  1.0 -0.0895620737
N  N1  1  0.32750000  0.67250000  0.50000000  1.0 -0.1597783084
N  N2  1  0.67250000  0.32750000  0.50000000  1.0 -0.1597783084
N  N3  1  0.17250000  0.82750000  0.00000000  1.0 -0.1597783084
N  N4  1  0.82750000  0.17250000  0.00000000  1.0 -0.1597783084
O  O1  1  0.07990000  0.00270000  0.46330000  1.0 -1.1092013148
O  O2  1  0.11445000  0.93853000  0.54730000  1.0 -0.558592516
O  O3  1  0.82028000  0.93570000  0.45050000  1.0 -0.5689097373
O  O4  1  0.11963000  0.06377000  0.66280000  1.0 -0.6729190303
O  O5  1  0.92520000  0.87180000  0.66420000  1.0 -0.7569077192
O  O6  1  0.81796000  0.88024000  0.54160000  1.0 -0.558592516
O  O7  1  0.06117000  0.94103000  0.66520000  1.0 -0.8343686553
O  O8  1  0.99730000  0.92010000  0.53670000  1.0 -1.1092013148
O  O9  1  0.06147000  0.88555000  0.45270000  1.0 -0.558592516
O  O10  1  0.06430000  0.17972000  0.54950000  1.0 -0.5689097373
O  O11  1  0.93623000  0.88037000  0.33720000  1.0 -0.6729190303
O  O12  1  0.12820000  0.07480000  0.33580000  1.0 -0.7569077192
O  O13  1  0.11976000  0.18204000  0.45840000  1.0 -0.558592516
O  O14  1  0.05897000  0.93883000  0.33480000  1.0 -0.8343686553
O  O15  1  0.92010000  0.99730000  0.53670000  1.0 -1.1092013148
O  O16  1  0.88555000  0.06147000  0.45270000  1.0 -0.558592516
O  O17  1  0.17972000  0.06430000  0.54950000  1.0 -0.5689097373
O  O18  1  0.88037000  0.93623000  0.33720000  1.0 -0.6729190303
O  O19  1  0.07480000  0.12820000  0.33580000  1.0 -0.7569077192
O  O20  1  0.18204000  0.11976000  0.45840000  1.0 -0.558592516
O  O21  1  0.93883000  0.05897000  0.33480000  1.0 -0.8366818009
O  O22  1  0.00270000  0.07990000  0.46330000  1.0 -1.1092013148
O  O23  1  0.93853000  0.11445000  0.54730000  1.0 -0.558592516
O  O24  1  0.93570000  0.82028000  0.45050000  1.0 -0.5689097373
O  O25  1  0.06377000  0.11963000  0.66280000  1.0 -0.6729190303
O  O26  1  0.87180000  0.92520000  0.66420000  1.0 -0.7569077192
O  O27  1  0.88024000  0.81796000  0.54160000  1.0 -0.558592516
O  O28  1  0.94103000  0.06117000  0.66520000  1.0 -0.8343686553
O  O29  1  0.92200000  0.92200000  0.45960000  1.0 -0.9646909414
O  O30  1  0.99710000  0.99710000  0.61260000  1.0 -0.8974793134
O  O31  1  0.07800000  0.07800000  0.54040000  1.0 -0.9661090551
O  O32  1  0.00290000  0.00290000  0.38740000  1.0 -0.8974793134
O  O33  1  0.42010000  0.49730000  0.96330000  1.0 -1.1092013148
O  O34  1  0.38555000  0.56147000  0.04730000  1.0 -0.558592516
O  O35  1  0.67972000  0.56430000  0.95050000  1.0 -0.5689097373
O  O36  1  0.38037000  0.43623000  0.16280000  1.0 -0.6729190303
O  O37  1  0.57480000  0.62820000  0.16420000  1.0 -0.7569077192
O  O38  1  0.68204000  0.61976000  0.04160000  1.0 -0.558592516
O  O39  1  0.43883000  0.55897000  0.16520000  1.0 -0.8343686553
O  O40  1  0.50270000  0.57990000  0.03670000  1.0 -1.1092013148
O  O41  1  0.43853000  0.61445000  0.95270000  1.0 -0.558592516
O  O42  1  0.43570000  0.32028000  0.04950000  1.0 -0.5689097373
O  O43  1  0.56377000  0.61963000  0.83720000  1.0 -0.6729190303
O  O44  1  0.37180000  0.42520000  0.83580000  1.0 -0.7569077192
O  O45  1  0.38024000  0.31796000  0.95840000  1.0 -0.558592516
O  O46  1  0.44103000  0.56117000  0.83480000  1.0 -0.8343686553
O  O47  1  0.57990000  0.50270000  0.03670000  1.0 -1.1092013148
O  O48  1  0.61445000  0.43853000  0.95270000  1.0 -0.558592516
O  O49  1  0.32028000  0.43570000  0.04950000  1.0 -0.5689097373
O  O50  1  0.61963000  0.56377000  0.83720000  1.0 -0.6729190303
O  O51  1  0.42520000  0.37180000  0.83580000  1.0 -0.7569077192
O  O52  1  0.31796000  0.38024000  0.95840000  1.0 -0.558592516
O  O53  1  0.56117000  0.44103000  0.83480000  1.0 -0.8343686553
O  O54  1  0.49730000  0.42010000  0.96330000  1.0 -1.1092013148
O  O55  1  0.56147000  0.38555000  0.04730000  1.0 -0.558592516
O  O56  1  0.56430000  0.67972000  0.95050000  1.0 -0.5689097373
O  O57  1  0.43623000  0.38037000  0.16280000  1.0 -0.6729190303
O  O58  1  0.62820000  0.57480000  0.16420000  1.0 -0.7569077192
O  O59  1  0.61976000  0.68204000  0.04160000  1.0 -0.558592516
O  O60  1  0.55897000  0.43883000  0.16520000  1.0 -0.8343686553
O  O61  1  0.57800000  0.57800000  0.95960000  1.0 -0.9661090551
O  O62  1  0.50290000  0.50290000  0.11260000  1.0 -0.8974793134
O  O63  1  0.42200000  0.42200000  0.04040000  1.0 -0.9646909414
O  O64  1  0.49710000  0.49710000  0.88740000  1.0 -0.8974793134
