# DDEC6 charges by PACMAN v1.1 (https://github.com/mtap-research/PACMAN-charge/)
data_WEYREA_ASR_pacman
_symmetry_space_group_name_H-M   'P 1'
_cell_length_a   25.08700000
_cell_length_b   25.08700000
_cell_length_c   25.08700000
_cell_angle_alpha   130.33800000
_cell_angle_beta   130.33800000
_cell_angle_gamma   72.86760000
_symmetry_Int_Tables_number   1
_chemical_formula_structural   ZrH16C23O4
_chemical_formula_sum   'Zr6 H96 C138 O24'
_cell_volume   8960.59430287
_cell_formula_units_Z   6
loop_
 _symmetry_equiv_pos_site_id
 _symmetry_equiv_pos_as_xyz
  1  'x, y, z'
loop_
 _atom_site_type_symbol
 _atom_site_label
 _atom_site_symmetry_multiplicity
 _atom_site_fract_x
 _atom_site_fract_y
 _atom_site_fract_z
 _atom_site_occupancy
 _atom_site_charge
Zr  Zr1  1  0.93872000  0.93872000  0.00000000  1.0 2.3666980723
Zr  Zr2  1  0.06128000  0.06128000  0.00000000  1.0 2.3666980723
Zr  Zr3  1  0.00000000  0.11791000  0.11791000  1.0 2.4566644887
Zr  Zr4  1  0.00000000  0.88209000  0.88209000  1.0 2.4566644887
Zr  Zr5  1  0.11791000  0.00000000  0.11791000  1.0 2.4566644887
Zr  Zr6  1  0.88209000  0.00000000  0.88209000  1.0 2.4566644887
H  H1  1  0.91850000  0.22530000  0.47140000  1.0 0.1025281193
H  H2  1  0.72590000  0.10290000  0.24380000  1.0 0.1025281193
H  H3  1  0.68430000  0.14650000  0.32020000  1.0 0.067853829
H  H4  1  0.87600000  0.27080000  0.54740000  1.0 0.067853829
H  H5  1  0.75390000  0.44710000  0.52860000  1.0 0.1025281193
H  H6  1  0.85910000  0.48210000  0.75620000  1.0 0.1025281193
H  H7  1  0.82630000  0.36410000  0.67980000  1.0 0.067853829
H  H8  1  0.72340000  0.32860000  0.45260000  1.0 0.067853829
H  H9  1  0.22530000  0.75390000  0.30680000  1.0 0.1025281193
H  H10  1  0.10290000  0.85910000  0.37700000  1.0 0.1025281193
H  H11  1  0.14650000  0.82630000  0.46220000  1.0 0.067853829
H  H12  1  0.27080000  0.72340000  0.39480000  1.0 0.067853829
H  H13  1  0.44710000  0.91850000  0.69320000  1.0 0.1025281193
H  H14  1  0.48210000  0.72590000  0.62300000  1.0 0.1025281193
H  H15  1  0.36410000  0.68430000  0.53780000  1.0 0.067853829
H  H16  1  0.32860000  0.87600000  0.60520000  1.0 0.067853829
H  H17  1  0.24610000  0.77470000  0.69320000  1.0 0.1025281193
H  H18  1  0.14090000  0.89710000  0.62300000  1.0 0.1025281193
H  H19  1  0.17370000  0.85350000  0.53780000  1.0 0.067853829
H  H20  1  0.27660000  0.72920000  0.60520000  1.0 0.067853829
H  H21  1  0.08150000  0.55290000  0.30680000  1.0 0.1025281193
H  H22  1  0.27410000  0.51790000  0.37700000  1.0 0.1025281193
H  H23  1  0.31570000  0.63590000  0.46220000  1.0 0.067853829
H  H24  1  0.12400000  0.67140000  0.39480000  1.0 0.067853829
H  H25  1  0.55290000  0.24610000  0.47140000  1.0 0.1025281193
H  H26  1  0.51790000  0.14090000  0.24380000  1.0 0.1025281193
H  H27  1  0.63590000  0.17370000  0.32020000  1.0 0.067853829
H  H28  1  0.67140000  0.27660000  0.54740000  1.0 0.067853829
H  H29  1  0.77470000  0.08150000  0.52860000  1.0 0.1025281193
H  H30  1  0.89710000  0.27410000  0.75620000  1.0 0.1025281193
H  H31  1  0.85350000  0.31570000  0.67980000  1.0 0.067853829
H  H32  1  0.72920000  0.12400000  0.45260000  1.0 0.067853829
H  H33  1  0.08150000  0.77470000  0.52860000  1.0 0.1025281193
H  H34  1  0.27410000  0.89710000  0.75620000  1.0 0.1025281193
H  H35  1  0.31570000  0.85350000  0.67980000  1.0 0.067853829
H  H36  1  0.12400000  0.72920000  0.45260000  1.0 0.067853829
H  H37  1  0.24610000  0.55290000  0.47140000  1.0 0.1025281193
H  H38  1  0.14090000  0.51790000  0.24380000  1.0 0.1025281193
H  H39  1  0.17370000  0.63590000  0.32020000  1.0 0.067853829
H  H40  1  0.27660000  0.67140000  0.54740000  1.0 0.067853829
H  H41  1  0.77470000  0.24610000  0.69320000  1.0 0.1025281193
H  H42  1  0.89710000  0.14090000  0.62300000  1.0 0.1025281193
H  H43  1  0.85350000  0.17370000  0.53780000  1.0 0.067853829
H  H44  1  0.72920000  0.27660000  0.60520000  1.0 0.067853829
H  H45  1  0.55290000  0.08150000  0.30680000  1.0 0.1025281193
H  H46  1  0.51790000  0.27410000  0.37700000  1.0 0.1025281193
H  H47  1  0.63590000  0.31570000  0.46220000  1.0 0.067853829
H  H48  1  0.67140000  0.12400000  0.39480000  1.0 0.067853829
H  H49  1  0.75390000  0.22530000  0.30680000  1.0 0.1025281193
H  H50  1  0.85910000  0.10290000  0.37700000  1.0 0.1025281193
H  H51  1  0.82630000  0.14650000  0.46220000  1.0 0.067853829
H  H52  1  0.72340000  0.27080000  0.39480000  1.0 0.067853829
H  H53  1  0.91850000  0.44710000  0.69320000  1.0 0.1025281193
H  H54  1  0.72590000  0.48210000  0.62300000  1.0 0.1025281193
H  H55  1  0.68430000  0.36410000  0.53780000  1.0 0.067853829
H  H56  1  0.87600000  0.32860000  0.60520000  1.0 0.067853829
H  H57  1  0.44710000  0.75390000  0.52860000  1.0 0.1025281193
H  H58  1  0.48210000  0.85910000  0.75620000  1.0 0.1025281193
H  H59  1  0.36410000  0.82630000  0.67980000  1.0 0.067853829
H  H60  1  0.32860000  0.72340000  0.45260000  1.0 0.067853829
H  H61  1  0.22530000  0.91850000  0.47140000  1.0 0.1025281193
H  H62  1  0.10290000  0.72590000  0.24380000  1.0 0.1025281193
H  H63  1  0.14650000  0.68430000  0.32020000  1.0 0.067853829
H  H64  1  0.27080000  0.87600000  0.54740000  1.0 0.067853829
H  H65  1  0.85500000  0.99490000  0.13990000  1.0 0.1280951957
H  H66  1  0.81550000  0.03100000  0.21550000  1.0 0.1093716212
H  H67  1  0.92460000  0.19410000  0.26950000  1.0 0.1093716212
H  H68  1  0.88540000  0.23490000  0.34950000  1.0 0.1188731799
H  H69  1  0.85500000  0.71510000  0.86010000  1.0 0.1280951957
H  H70  1  0.81550000  0.60000000  0.78450000  1.0 0.1093716212
H  H71  1  0.92460000  0.65510000  0.73050000  1.0 0.1093716212
H  H72  1  0.88540000  0.53590000  0.65050000  1.0 0.1188731799
H  H73  1  0.99490000  0.85500000  0.13990000  1.0 0.1280951957
H  H74  1  0.03100000  0.81550000  0.21550000  1.0 0.1093716212
H  H75  1  0.19410000  0.92460000  0.26950000  1.0 0.1093716212
H  H76  1  0.23490000  0.88540000  0.34950000  1.0 0.1188731799
H  H77  1  0.71510000  0.85500000  0.86010000  1.0 0.1280951957
H  H78  1  0.60000000  0.81550000  0.78450000  1.0 0.1093716212
H  H79  1  0.65510000  0.92460000  0.73050000  1.0 0.1093716212
H  H80  1  0.53590000  0.88540000  0.65050000  1.0 0.1188731799
H  H81  1  0.14500000  0.00510000  0.86010000  1.0 0.1280951957
H  H82  1  0.18450000  0.96900000  0.78450000  1.0 0.1093716212
H  H83  1  0.07540000  0.80590000  0.73050000  1.0 0.1093716212
H  H84  1  0.11460000  0.76510000  0.65050000  1.0 0.1188731799
H  H85  1  0.14500000  0.28490000  0.13990000  1.0 0.1280951957
H  H86  1  0.18450000  0.40000000  0.21550000  1.0 0.1093716212
H  H87  1  0.07540000  0.34490000  0.26950000  1.0 0.1093716212
H  H88  1  0.11460000  0.46410000  0.34950000  1.0 0.1188731799
H  H89  1  0.28490000  0.14500000  0.13990000  1.0 0.1280951957
H  H90  1  0.40000000  0.18450000  0.21550000  1.0 0.1093716212
H  H91  1  0.34490000  0.07540000  0.26950000  1.0 0.1093716212
H  H92  1  0.46410000  0.11460000  0.34950000  1.0 0.1188731799
H  H93  1  0.00510000  0.14500000  0.86010000  1.0 0.1280951957
H  H94  1  0.96900000  0.18450000  0.78450000  1.0 0.1093716212
H  H95  1  0.80590000  0.07540000  0.73050000  1.0 0.1093716212
H  H96  1  0.76510000  0.11460000  0.65050000  1.0 0.1188731799
C  C1  1  0.87033000  0.21153000  0.44040000  1.0 -0.1259550199
C  C2  1  0.75674000  0.13914000  0.30560000  1.0 -0.0674159864
C  C3  1  0.73129000  0.16449000  0.35180000  1.0 -0.0783766051
C  C4  1  0.84490000  0.23700000  0.48510000  1.0 -0.1259550199
C  C5  1  0.77113000  0.42993000  0.55960000  1.0 -0.1259550199
C  C6  1  0.83354000  0.45114000  0.69440000  1.0 -0.0674159864
C  C7  1  0.81269000  0.37949000  0.64820000  1.0 -0.0783766051
C  C8  1  0.75190000  0.35980000  0.51490000  1.0 -0.1244257231
C  C9  1  0.21153000  0.77113000  0.34120000  1.0 -0.1259550199
C  C10  1  0.13914000  0.83354000  0.38240000  1.0 -0.0674159864
C  C11  1  0.16449000  0.81269000  0.43320000  1.0 -0.0783766051
C  C12  1  0.23700000  0.75190000  0.39210000  1.0 -0.1259550199
C  C13  1  0.42993000  0.87033000  0.65880000  1.0 -0.1259550199
C  C14  1  0.45114000  0.75674000  0.61760000  1.0 -0.0674159864
C  C15  1  0.37949000  0.73129000  0.56680000  1.0 -0.0783766051
C  C16  1  0.35980000  0.84490000  0.60790000  1.0 -0.1259550199
C  C17  1  0.22887000  0.78847000  0.65880000  1.0 -0.1259550199
C  C18  1  0.16646000  0.86086000  0.61760000  1.0 -0.0674159864
C  C19  1  0.18731000  0.83551000  0.56680000  1.0 -0.0783766051
C  C20  1  0.24810000  0.76300000  0.60790000  1.0 -0.1259550199
C  C21  1  0.12967000  0.57007000  0.34120000  1.0 -0.1259550199
C  C22  1  0.24326000  0.54886000  0.38240000  1.0 -0.0674159864
C  C23  1  0.26871000  0.62051000  0.43320000  1.0 -0.0783766051
C  C24  1  0.15510000  0.64020000  0.39210000  1.0 -0.1259550199
C  C25  1  0.57007000  0.22887000  0.44040000  1.0 -0.1259550199
C  C26  1  0.54886000  0.16646000  0.30560000  1.0 -0.0674159864
C  C27  1  0.62051000  0.18731000  0.35180000  1.0 -0.0783766051
C  C28  1  0.64020000  0.24810000  0.48510000  1.0 -0.1259550199
C  C29  1  0.78847000  0.12967000  0.55960000  1.0 -0.1259550199
C  C30  1  0.86086000  0.24326000  0.69440000  1.0 -0.0674159864
C  C31  1  0.83551000  0.26871000  0.64820000  1.0 -0.0783766051
C  C32  1  0.76300000  0.15510000  0.51490000  1.0 -0.1259550199
C  C33  1  0.12967000  0.78847000  0.55960000  1.0 -0.1259550199
C  C34  1  0.24326000  0.86086000  0.69440000  1.0 -0.0674159864
C  C35  1  0.26871000  0.83551000  0.64820000  1.0 -0.0783766051
C  C36  1  0.15510000  0.76300000  0.51490000  1.0 -0.1259550199
C  C37  1  0.22887000  0.57007000  0.44040000  1.0 -0.1259550199
C  C38  1  0.16646000  0.54886000  0.30560000  1.0 -0.0674159864
C  C39  1  0.18731000  0.62051000  0.35180000  1.0 -0.0783766051
C  C40  1  0.24810000  0.64020000  0.48510000  1.0 -0.1259550199
C  C41  1  0.78847000  0.22887000  0.65880000  1.0 -0.1259550199
C  C42  1  0.86086000  0.16646000  0.61760000  1.0 -0.0674159864
C  C43  1  0.83551000  0.18731000  0.56680000  1.0 -0.0674159864
C  C44  1  0.76300000  0.24810000  0.60790000  1.0 -0.1259550199
C  C45  1  0.57007000  0.12967000  0.34120000  1.0 -0.1259550199
C  C46  1  0.54886000  0.24326000  0.38240000  1.0 -0.0674159864
C  C47  1  0.62051000  0.26871000  0.43320000  1.0 -0.0783766051
C  C48  1  0.64020000  0.15510000  0.39210000  1.0 -0.1259550199
C  C49  1  0.77113000  0.21153000  0.34120000  1.0 -0.1259550199
C  C50  1  0.83354000  0.13914000  0.38240000  1.0 -0.0674159864
C  C51  1  0.81269000  0.16449000  0.43320000  1.0 -0.0674159864
C  C52  1  0.75190000  0.23700000  0.39210000  1.0 -0.1259550199
C  C53  1  0.87033000  0.42993000  0.65880000  1.0 -0.1259550199
C  C54  1  0.75674000  0.45114000  0.61760000  1.0 -0.0674159864
C  C55  1  0.73129000  0.37949000  0.56680000  1.0 -0.0674159864
C  C56  1  0.84490000  0.35980000  0.60790000  1.0 -0.1259550199
C  C57  1  0.42993000  0.77113000  0.55960000  1.0 -0.1259550199
C  C58  1  0.45114000  0.83354000  0.69440000  1.0 -0.0674159864
C  C59  1  0.37949000  0.81269000  0.64820000  1.0 -0.0783766051
C  C60  1  0.35980000  0.75190000  0.51490000  1.0 -0.1259550199
C  C61  1  0.21153000  0.87033000  0.44040000  1.0 -0.1259550199
C  C62  1  0.13914000  0.75674000  0.30560000  1.0 -0.0674159864
C  C63  1  0.16449000  0.73129000  0.35180000  1.0 -0.0783766051
C  C64  1  0.23700000  0.84490000  0.48510000  1.0 -0.1259550199
C  C65  1  0.92016000  0.06756000  0.14740000  1.0 0.6305230121
C  C66  1  0.89466000  0.09136000  0.19670000  1.0 -0.0783766051
C  C67  1  0.86137000  0.04377000  0.18240000  1.0 -0.0890933247
C  C68  1  0.84565000  0.13645000  0.29080000  1.0 0.05332834
C  C69  1  0.83763000  0.06513000  0.22750000  1.0 -0.1574849104
C  C70  1  0.90229000  0.16069000  0.25840000  1.0 -0.0783766051
C  C71  1  0.87886000  0.18606000  0.30720000  1.0 -0.1678470736
C  C72  1  0.81996000  0.16176000  0.34180000  1.0 0.0422495018
C  C73  1  0.77319000  0.21459000  0.44140000  1.0 0.0303382884
C  C74  1  0.92016000  0.77276000  0.85260000  1.0 0.6305230121
C  C75  1  0.89466000  0.69796000  0.80330000  1.0 -0.0783766051
C  C76  1  0.86137000  0.67897000  0.81760000  1.0 -0.0890933247
C  C77  1  0.84565000  0.55485000  0.70920000  1.0 0.05332834
C  C78  1  0.83763000  0.61013000  0.77250000  1.0 -0.1574849104
C  C79  1  0.90229000  0.64389000  0.74160000  1.0 -0.0783766051
C  C80  1  0.87886000  0.57166000  0.69280000  1.0 -0.1678470736
C  C81  1  0.81996000  0.47816000  0.65820000  1.0 0.0422495018
C  C82  1  0.77319000  0.33179000  0.55860000  1.0 0.0303382884
C  C83  1  0.06756000  0.92016000  0.14740000  1.0 0.6305230121
C  C84  1  0.09136000  0.89466000  0.19670000  1.0 -0.0783766051
C  C85  1  0.04377000  0.86137000  0.18240000  1.0 -0.0890933247
C  C86  1  0.13645000  0.84565000  0.29080000  1.0 0.05332834
C  C87  1  0.06513000  0.83763000  0.22750000  1.0 -0.1574849104
C  C88  1  0.16069000  0.90229000  0.25840000  1.0 -0.0783766051
C  C89  1  0.18606000  0.87886000  0.30720000  1.0 -0.1678470736
C  C90  1  0.16176000  0.81996000  0.34180000  1.0 0.0422495018
C  C91  1  0.21459000  0.77319000  0.44140000  1.0 0.0303382884
C  C92  1  0.77276000  0.92016000  0.85260000  1.0 0.6305230121
C  C93  1  0.69796000  0.89466000  0.80330000  1.0 -0.0783766051
C  C94  1  0.67897000  0.86137000  0.81760000  1.0 -0.0890933247
C  C95  1  0.55485000  0.84565000  0.70920000  1.0 0.05332834
C  C96  1  0.61013000  0.83763000  0.77250000  1.0 -0.1574849104
C  C97  1  0.64389000  0.90229000  0.74160000  1.0 -0.0783766051
C  C98  1  0.57166000  0.87886000  0.69280000  1.0 -0.1678470736
C  C99  1  0.47816000  0.81996000  0.65820000  1.0 0.0422495018
C  C100  1  0.33179000  0.77319000  0.55860000  1.0 0.0303382884
C  C101  1  0.07984000  0.93244000  0.85260000  1.0 0.6305230121
C  C102  1  0.10534000  0.90864000  0.80330000  1.0 -0.0783766051
C  C103  1  0.13863000  0.95623000  0.81760000  1.0 -0.0890933247
C  C104  1  0.15435000  0.86355000  0.70920000  1.0 0.05332834
C  C105  1  0.16237000  0.93487000  0.77250000  1.0 -0.1574849104
C  C106  1  0.09771000  0.83931000  0.74160000  1.0 -0.0783766051
C  C107  1  0.12114000  0.81394000  0.69280000  1.0 -0.1678470736
C  C108  1  0.18004000  0.83824000  0.65820000  1.0 0.0422495018
C  C109  1  0.22681000  0.78541000  0.55860000  1.0 0.0303382884
C  C110  1  0.07984000  0.22724000  0.14740000  1.0 0.6305230121
C  C111  1  0.10534000  0.30204000  0.19670000  1.0 -0.0783766051
C  C112  1  0.13863000  0.32103000  0.18240000  1.0 -0.0890933247
C  C113  1  0.15435000  0.44515000  0.29080000  1.0 0.05332834
C  C114  1  0.16237000  0.38987000  0.22750000  1.0 -0.1574849104
C  C115  1  0.09771000  0.35611000  0.25840000  1.0 -0.0783766051
C  C116  1  0.12114000  0.42834000  0.30720000  1.0 -0.1678470736
C  C117  1  0.18004000  0.52184000  0.34180000  1.0 0.0422495018
C  C118  1  0.22681000  0.66821000  0.44140000  1.0 0.0303382884
C  C119  1  0.22724000  0.07984000  0.14740000  1.0 0.6305230121
C  C120  1  0.30204000  0.10534000  0.19670000  1.0 -0.0783766051
C  C121  1  0.32103000  0.13863000  0.18240000  1.0 -0.0890933247
C  C122  1  0.44515000  0.15435000  0.29080000  1.0 0.05332834
C  C123  1  0.38987000  0.16237000  0.22750000  1.0 -0.1574849104
C  C124  1  0.35611000  0.09771000  0.25840000  1.0 -0.0783766051
C  C125  1  0.42834000  0.12114000  0.30720000  1.0 -0.1678470736
C  C126  1  0.52184000  0.18004000  0.34180000  1.0 0.0422495018
C  C127  1  0.66821000  0.22681000  0.44140000  1.0 0.0303382884
C  C128  1  0.93244000  0.07984000  0.85260000  1.0 0.6305230121
C  C129  1  0.90864000  0.10534000  0.80330000  1.0 -0.0783766051
C  C130  1  0.95623000  0.13863000  0.81760000  1.0 -0.0890933247
C  C131  1  0.86355000  0.15435000  0.70920000  1.0 0.05332834
C  C132  1  0.93487000  0.16237000  0.77250000  1.0 -0.1574849104
C  C133  1  0.83931000  0.09771000  0.74160000  1.0 -0.0783766051
C  C134  1  0.81394000  0.12114000  0.69280000  1.0 -0.1678470736
C  C135  1  0.83824000  0.18004000  0.65820000  1.0 0.0422495018
C  C136  1  0.78541000  0.22681000  0.55860000  1.0 0.0303382884
C  C137  1  0.75000000  0.25000000  0.50000000  1.0 -0.0539324236
C  C138  1  0.25000000  0.75000000  0.50000000  1.0 -0.0565898073
O  O1  1  0.91110000  0.00094000  0.08984000  1.0 -0.5773449509
O  O2  1  0.95012000  0.11625000  0.16613000  1.0 -0.607187893
O  O3  1  0.91110000  0.82126000  0.91016000  1.0 -0.5773449509
O  O4  1  0.95012000  0.78399000  0.83387000  1.0 -0.607187893
O  O5  1  0.00094000  0.91110000  0.08984000  1.0 -0.5773449509
O  O6  1  0.11625000  0.95012000  0.16613000  1.0 -0.607187893
O  O7  1  0.82126000  0.91110000  0.91016000  1.0 -0.5773449509
O  O8  1  0.78399000  0.95012000  0.83387000  1.0 -0.607187893
O  O9  1  0.08890000  0.99906000  0.91016000  1.0 -0.5773449509
O  O10  1  0.04988000  0.88375000  0.83387000  1.0 -0.607187893
O  O11  1  0.08890000  0.17874000  0.08984000  1.0 -0.5739824911
O  O12  1  0.04988000  0.21601000  0.16613000  1.0 -0.6035192748
O  O13  1  0.17874000  0.08890000  0.08984000  1.0 -0.5773449509
O  O14  1  0.21601000  0.04988000  0.16613000  1.0 -0.6035192748
O  O15  1  0.99906000  0.08890000  0.91016000  1.0 -0.5773449509
O  O16  1  0.88375000  0.04988000  0.83387000  1.0 -0.6035192748
O  O17  1  0.02830000  0.91228000  0.00000000  1.0 -1.1629596094
O  O18  1  0.91228000  0.02830000  0.00000000  1.0 -1.1629596094
O  O19  1  0.91228000  0.91228000  0.88398000  1.0 -1.1629596094
O  O20  1  0.02830000  0.02830000  0.11602000  1.0 -1.1629596094
O  O21  1  0.08772000  0.08772000  0.11602000  1.0 -1.1705245515
O  O22  1  0.97170000  0.97170000  0.88398000  1.0 -1.1629596094
O  O23  1  0.97170000  0.08772000  0.00000000  1.0 -1.1705245515
O  O24  1  0.08772000  0.97170000  0.00000000  1.0 -1.1629596094
