# DDEC6 charges by PACMAN v1.1 (https://github.com/mtap-research/PACMAN-charge/)
data_WEZCIO_ASR_pacman
_symmetry_space_group_name_H-M   'P 1'
_cell_length_a   15.30900000
_cell_length_b   15.30900000
_cell_length_c   15.17970000
_cell_angle_alpha   90.00000000
_cell_angle_beta   90.00000000
_cell_angle_gamma   120.00000000
_symmetry_Int_Tables_number   1
_chemical_formula_structural   La2Co3H24(C4O5)6
_chemical_formula_sum   'La4 Co6 H48 C48 O60'
_cell_volume   3080.96997766
_cell_formula_units_Z   2
loop_
 _symmetry_equiv_pos_site_id
 _symmetry_equiv_pos_as_xyz
  1  'x, y, z'
loop_
 _atom_site_type_symbol
 _atom_site_label
 _atom_site_symmetry_multiplicity
 _atom_site_fract_x
 _atom_site_fract_y
 _atom_site_fract_z
 _atom_site_occupancy
 _atom_site_charge
La  La1  1  0.33333333  0.66666667  0.25000000  1.0 1.7270928878
La  La2  1  0.66666667  0.33333333  0.25000000  1.0 1.7270928878
La  La3  1  0.66666667  0.33333333  0.75000000  1.0 1.7270928878
La  La4  1  0.33333333  0.66666667  0.75000000  1.0 1.7270928878
Co  Co1  1  0.50000000  0.50000000  0.00000000  1.0 1.03538176
Co  Co2  1  0.00000000  0.50000000  0.00000000  1.0 1.0349416393
Co  Co3  1  0.50000000  0.00000000  0.00000000  1.0 1.0349416393
Co  Co4  1  0.50000000  0.00000000  0.50000000  1.0 1.03538176
Co  Co5  1  0.50000000  0.50000000  0.50000000  1.0 1.0349416393
Co  Co6  1  0.00000000  0.50000000  0.50000000  1.0 1.0349416393
H  H1  1  0.21060000  0.36430000  0.16470000  1.0 0.1363254397
H  H2  1  0.84630000  0.21060000  0.16470000  1.0 0.1363254397
H  H3  1  0.63570000  0.84630000  0.16470000  1.0 0.1363254397
H  H4  1  0.15370000  0.78940000  0.16470000  1.0 0.1363254397
H  H5  1  0.36430000  0.15370000  0.16470000  1.0 0.1363254397
H  H6  1  0.21060000  0.84630000  0.33530000  1.0 0.1363254397
H  H7  1  0.36430000  0.21060000  0.33530000  1.0 0.1363254397
H  H8  1  0.15370000  0.36430000  0.33530000  1.0 0.1363254397
H  H9  1  0.78940000  0.63570000  0.16470000  1.0 0.1363254397
H  H10  1  0.63570000  0.78940000  0.33530000  1.0 0.1363254397
H  H11  1  0.84630000  0.63570000  0.33530000  1.0 0.1363254397
H  H12  1  0.78940000  0.15370000  0.33530000  1.0 0.1363254397
H  H13  1  0.78940000  0.63570000  0.83530000  1.0 0.1363254397
H  H14  1  0.15370000  0.78940000  0.83530000  1.0 0.1363254397
H  H15  1  0.36430000  0.15370000  0.83530000  1.0 0.1363254397
H  H16  1  0.84630000  0.21060000  0.83530000  1.0 0.1363254397
H  H17  1  0.63570000  0.84630000  0.83530000  1.0 0.1363254397
H  H18  1  0.78940000  0.15370000  0.66470000  1.0 0.1363254397
H  H19  1  0.63570000  0.78940000  0.66470000  1.0 0.1363254397
H  H20  1  0.84630000  0.63570000  0.66470000  1.0 0.1363254397
H  H21  1  0.21060000  0.36430000  0.83530000  1.0 0.1363254397
H  H22  1  0.36430000  0.21060000  0.66470000  1.0 0.1363254397
H  H23  1  0.15370000  0.36430000  0.66470000  1.0 0.1363254397
H  H24  1  0.21060000  0.84630000  0.66470000  1.0 0.1363254397
H  H25  1  0.28740000  0.37700000  0.23920000  1.0 0.1225280385
H  H26  1  0.91040000  0.28740000  0.23920000  1.0 0.1225280385
H  H27  1  0.62300000  0.91040000  0.23920000  1.0 0.1225280385
H  H28  1  0.08960000  0.71260000  0.23920000  1.0 0.1225280385
H  H29  1  0.37700000  0.08960000  0.23920000  1.0 0.1225280385
H  H30  1  0.28740000  0.91040000  0.26080000  1.0 0.1225280385
H  H31  1  0.37700000  0.28740000  0.26080000  1.0 0.1225280385
H  H32  1  0.08960000  0.37700000  0.26080000  1.0 0.1225280385
H  H33  1  0.71260000  0.62300000  0.23920000  1.0 0.1225280385
H  H34  1  0.62300000  0.71260000  0.26080000  1.0 0.1225280385
H  H35  1  0.91040000  0.62300000  0.26080000  1.0 0.1225280385
H  H36  1  0.71260000  0.08960000  0.26080000  1.0 0.1225280385
H  H37  1  0.71260000  0.62300000  0.76080000  1.0 0.1225280385
H  H38  1  0.08960000  0.71260000  0.76080000  1.0 0.1225280385
H  H39  1  0.37700000  0.08960000  0.76080000  1.0 0.1225280385
H  H40  1  0.91040000  0.28740000  0.76080000  1.0 0.1225280385
H  H41  1  0.62300000  0.91040000  0.76080000  1.0 0.1225280385
H  H42  1  0.71260000  0.08960000  0.73920000  1.0 0.1225280385
H  H43  1  0.62300000  0.71260000  0.73920000  1.0 0.1225280385
H  H44  1  0.91040000  0.62300000  0.73920000  1.0 0.1225280385
H  H45  1  0.28740000  0.37700000  0.76080000  1.0 0.1225280385
H  H46  1  0.37700000  0.28740000  0.73920000  1.0 0.1225280385
H  H47  1  0.08960000  0.37700000  0.73920000  1.0 0.1225280385
H  H48  1  0.28740000  0.91040000  0.73920000  1.0 0.1225280385
C  C1  1  0.35240000  0.48120000  0.14130000  1.0 0.6264055479
C  C2  1  0.87120000  0.35240000  0.14130000  1.0 0.6264055479
C  C3  1  0.51880000  0.87120000  0.14130000  1.0 0.6264055479
C  C4  1  0.12880000  0.64760000  0.14130000  1.0 0.6264055479
C  C5  1  0.48120000  0.12880000  0.14130000  1.0 0.6264055479
C  C6  1  0.35240000  0.87120000  0.35870000  1.0 0.6264055479
C  C7  1  0.48120000  0.35240000  0.35870000  1.0 0.6264055479
C  C8  1  0.12880000  0.48120000  0.35870000  1.0 0.6264055479
C  C9  1  0.64760000  0.51880000  0.14130000  1.0 0.6264055479
C  C10  1  0.51880000  0.64760000  0.35870000  1.0 0.6264055479
C  C11  1  0.87120000  0.51880000  0.35870000  1.0 0.6264055479
C  C12  1  0.64760000  0.12880000  0.35870000  1.0 0.6264055479
C  C13  1  0.64760000  0.51880000  0.85870000  1.0 0.6264055479
C  C14  1  0.12880000  0.64760000  0.85870000  1.0 0.6264055479
C  C15  1  0.48120000  0.12880000  0.85870000  1.0 0.6264055479
C  C16  1  0.87120000  0.35240000  0.85870000  1.0 0.6264055479
C  C17  1  0.51880000  0.87120000  0.85870000  1.0 0.6264055479
C  C18  1  0.64760000  0.12880000  0.64130000  1.0 0.6264055479
C  C19  1  0.51880000  0.64760000  0.64130000  1.0 0.6264055479
C  C20  1  0.87120000  0.51880000  0.64130000  1.0 0.6264055479
C  C21  1  0.35240000  0.48120000  0.85870000  1.0 0.6264055479
C  C22  1  0.48120000  0.35240000  0.64130000  1.0 0.6264055479
C  C23  1  0.12880000  0.48120000  0.64130000  1.0 0.6264055479
C  C24  1  0.35240000  0.87120000  0.64130000  1.0 0.6264055479
C  C25  1  0.26650000  0.41330000  0.20000000  1.0 -0.1762526946
C  C26  1  0.85320000  0.26650000  0.20000000  1.0 -0.1762526946
C  C27  1  0.58670000  0.85320000  0.20000000  1.0 -0.1762526946
C  C28  1  0.14680000  0.73350000  0.20000000  1.0 -0.1762526946
C  C29  1  0.41330000  0.14680000  0.20000000  1.0 -0.1762526946
C  C30  1  0.26650000  0.85320000  0.30000000  1.0 -0.1762526946
C  C31  1  0.41330000  0.26650000  0.30000000  1.0 -0.1762526946
C  C32  1  0.14680000  0.41330000  0.30000000  1.0 -0.1762526946
C  C33  1  0.73350000  0.58670000  0.20000000  1.0 -0.1762526946
C  C34  1  0.58670000  0.73350000  0.30000000  1.0 -0.1762526946
C  C35  1  0.85320000  0.58670000  0.30000000  1.0 -0.1762526946
C  C36  1  0.73350000  0.14680000  0.30000000  1.0 -0.1762526946
C  C37  1  0.73350000  0.58670000  0.80000000  1.0 -0.1762526946
C  C38  1  0.14680000  0.73350000  0.80000000  1.0 -0.1762526946
C  C39  1  0.41330000  0.14680000  0.80000000  1.0 -0.1762526946
C  C40  1  0.85320000  0.26650000  0.80000000  1.0 -0.1762526946
C  C41  1  0.58670000  0.85320000  0.80000000  1.0 -0.1762526946
C  C42  1  0.73350000  0.14680000  0.70000000  1.0 -0.1762526946
C  C43  1  0.58670000  0.73350000  0.70000000  1.0 -0.1762526946
C  C44  1  0.85320000  0.58670000  0.70000000  1.0 -0.1762526946
C  C45  1  0.26650000  0.41330000  0.80000000  1.0 -0.1762526946
C  C46  1  0.41330000  0.26650000  0.70000000  1.0 -0.1762526946
C  C47  1  0.14680000  0.41330000  0.70000000  1.0 -0.1762526946
C  C48  1  0.26650000  0.85320000  0.70000000  1.0 -0.1762526946
O  O1  1  0.23545000  0.47090000  0.25000000  1.0 -0.1936876368
O  O2  1  0.76455000  0.23545000  0.25000000  1.0 -0.1936876368
O  O3  1  0.52910000  0.76455000  0.25000000  1.0 -0.1936876368
O  O4  1  0.23545000  0.76455000  0.25000000  1.0 -0.1936876368
O  O5  1  0.47090000  0.23545000  0.25000000  1.0 -0.1936876368
O  O6  1  0.76455000  0.52910000  0.25000000  1.0 -0.1936876368
O  O7  1  0.76455000  0.52910000  0.75000000  1.0 -0.1936876368
O  O8  1  0.23545000  0.76455000  0.75000000  1.0 -0.1936876368
O  O9  1  0.47090000  0.23545000  0.75000000  1.0 -0.1936876368
O  O10  1  0.76455000  0.23545000  0.75000000  1.0 -0.1936876368
O  O11  1  0.52910000  0.76455000  0.75000000  1.0 -0.1936876368
O  O12  1  0.23545000  0.47090000  0.75000000  1.0 -0.1936876368
O  O13  1  0.38840000  0.44010000  0.09540000  1.0 -0.5657034855
O  O14  1  0.94830000  0.38840000  0.09540000  1.0 -0.5657034855
O  O15  1  0.55990000  0.94830000  0.09540000  1.0 -0.5657034855
O  O16  1  0.05170000  0.61160000  0.09540000  1.0 -0.5657034855
O  O17  1  0.44010000  0.05170000  0.09540000  1.0 -0.5657034855
O  O18  1  0.38840000  0.94830000  0.40460000  1.0 -0.5657034855
O  O19  1  0.44010000  0.38840000  0.40460000  1.0 -0.5657034855
O  O20  1  0.05170000  0.44010000  0.40460000  1.0 -0.5657034855
O  O21  1  0.61160000  0.55990000  0.09540000  1.0 -0.5657034855
O  O22  1  0.55990000  0.61160000  0.40460000  1.0 -0.5657034855
O  O23  1  0.94830000  0.55990000  0.40460000  1.0 -0.5657034855
O  O24  1  0.61160000  0.05170000  0.40460000  1.0 -0.5657034855
O  O25  1  0.61160000  0.55990000  0.90460000  1.0 -0.5657034855
O  O26  1  0.05170000  0.61160000  0.90460000  1.0 -0.5657034855
O  O27  1  0.44010000  0.05170000  0.90460000  1.0 -0.5657034855
O  O28  1  0.94830000  0.38840000  0.90460000  1.0 -0.5657034855
O  O29  1  0.55990000  0.94830000  0.90460000  1.0 -0.5657034855
O  O30  1  0.61160000  0.05170000  0.59540000  1.0 -0.5657034855
O  O31  1  0.55990000  0.61160000  0.59540000  1.0 -0.5657034855
O  O32  1  0.94830000  0.55990000  0.59540000  1.0 -0.5657034855
O  O33  1  0.38840000  0.44010000  0.90460000  1.0 -0.5657034855
O  O34  1  0.44010000  0.38840000  0.59540000  1.0 -0.5657034855
O  O35  1  0.05170000  0.44010000  0.59540000  1.0 -0.5657034855
O  O36  1  0.38840000  0.94830000  0.59540000  1.0 -0.5657034855
O  O37  1  0.38120000  0.57430000  0.14180000  1.0 -0.5930799287
O  O38  1  0.80690000  0.38120000  0.14180000  1.0 -0.5930799287
O  O39  1  0.42570000  0.80690000  0.14180000  1.0 -0.5930799287
O  O40  1  0.19310000  0.61880000  0.14180000  1.0 -0.5930799287
O  O41  1  0.57430000  0.19310000  0.14180000  1.0 -0.5930799287
O  O42  1  0.38120000  0.80690000  0.35820000  1.0 -0.5930799287
O  O43  1  0.57430000  0.38120000  0.35820000  1.0 -0.5930799287
O  O44  1  0.19310000  0.57430000  0.35820000  1.0 -0.5930799287
O  O45  1  0.61880000  0.42570000  0.14180000  1.0 -0.5930799287
O  O46  1  0.42570000  0.61880000  0.35820000  1.0 -0.5930799287
O  O47  1  0.80690000  0.42570000  0.35820000  1.0 -0.5930799287
O  O48  1  0.61880000  0.19310000  0.35820000  1.0 -0.5930799287
O  O49  1  0.61880000  0.42570000  0.85820000  1.0 -0.5930799287
O  O50  1  0.19310000  0.61880000  0.85820000  1.0 -0.5930799287
O  O51  1  0.57430000  0.19310000  0.85820000  1.0 -0.5930799287
O  O52  1  0.80690000  0.38120000  0.85820000  1.0 -0.5930799287
O  O53  1  0.42570000  0.80690000  0.85820000  1.0 -0.5930799287
O  O54  1  0.61880000  0.19310000  0.64180000  1.0 -0.5930799287
O  O55  1  0.42570000  0.61880000  0.64180000  1.0 -0.5930799287
O  O56  1  0.80690000  0.42570000  0.64180000  1.0 -0.5930799287
O  O57  1  0.38120000  0.57430000  0.85820000  1.0 -0.5930799287
O  O58  1  0.57430000  0.38120000  0.64180000  1.0 -0.5930799287
O  O59  1  0.19310000  0.57430000  0.64180000  1.0 -0.5930799287
O  O60  1  0.38120000  0.80690000  0.64180000  1.0 -0.5930799287
