# DDEC6 charges by PACMAN v1.1 (https://github.com/mtap-research/PACMAN-charge/)
data_WIBDAO_ASR_pacman
_symmetry_space_group_name_H-M   'P 1'
_cell_length_a   14.29500000
_cell_length_b   15.78700000
_cell_length_c   16.74400000
_cell_angle_alpha   90.00000000
_cell_angle_beta   90.00000000
_cell_angle_gamma   90.00000000
_symmetry_Int_Tables_number   1
_chemical_formula_structural   LaCo2H24C22S4(NO2)6
_chemical_formula_sum   'La4 Co8 H96 C88 S16 N24 O48'
_cell_volume   3778.70496276
_cell_formula_units_Z   4
loop_
 _symmetry_equiv_pos_site_id
 _symmetry_equiv_pos_as_xyz
  1  'x, y, z'
loop_
 _atom_site_type_symbol
 _atom_site_label
 _atom_site_symmetry_multiplicity
 _atom_site_fract_x
 _atom_site_fract_y
 _atom_site_fract_z
 _atom_site_occupancy
 _atom_site_charge
La  La1  1  0.10837000  0.25000000  0.75000000  1.0 1.772595342
La  La2  1  0.39163000  0.75000000  0.25000000  1.0 1.772595342
La  La3  1  0.89163000  0.75000000  0.25000000  1.0 1.772595342
La  La4  1  0.60837000  0.25000000  0.75000000  1.0 1.772595342
Co  Co1  1  0.78629000  0.06370000  0.61403000  1.0 0.7627557774
Co  Co2  1  0.78629000  0.43630000  0.88597000  1.0 0.7627557774
Co  Co3  1  0.71371000  0.93630000  0.11403000  1.0 0.7627557774
Co  Co4  1  0.71371000  0.56370000  0.38597000  1.0 0.7627557774
Co  Co5  1  0.21371000  0.93630000  0.38597000  1.0 0.7627557774
Co  Co6  1  0.21371000  0.56370000  0.11403000  1.0 0.7627557774
Co  Co7  1  0.28629000  0.06370000  0.88597000  1.0 0.7627557774
Co  Co8  1  0.28629000  0.43630000  0.61403000  1.0 0.7627557774
H  H1  1  0.92730000  0.99870000  0.78510000  1.0 0.1413135712
H  H2  1  0.92730000  0.50130000  0.71490000  1.0 0.1413135712
H  H3  1  0.57270000  0.00130000  0.28510000  1.0 0.1413135712
H  H4  1  0.57270000  0.49870000  0.21490000  1.0 0.1413135712
H  H5  1  0.07270000  0.00130000  0.21490000  1.0 0.1413135712
H  H6  1  0.07270000  0.49870000  0.28510000  1.0 0.1413135712
H  H7  1  0.42730000  0.99870000  0.71490000  1.0 0.1413135712
H  H8  1  0.42730000  0.50130000  0.78510000  1.0 0.1413135712
H  H9  1  0.84240000  0.04810000  0.82130000  1.0 0.1504903898
H  H10  1  0.84240000  0.45190000  0.67870000  1.0 0.1504903898
H  H11  1  0.65760000  0.95190000  0.32130000  1.0 0.1504903898
H  H12  1  0.65760000  0.54810000  0.17870000  1.0 0.1504903898
H  H13  1  0.15760000  0.95190000  0.17870000  1.0 0.1504903898
H  H14  1  0.15760000  0.54810000  0.32130000  1.0 0.1504903898
H  H15  1  0.34240000  0.04810000  0.67870000  1.0 0.1504903898
H  H16  1  0.34240000  0.45190000  0.82130000  1.0 0.1504903898
H  H17  1  0.72480000  0.95920000  0.81020000  1.0 0.121933472
H  H18  1  0.72480000  0.54080000  0.68980000  1.0 0.121933472
H  H19  1  0.77520000  0.04080000  0.31020000  1.0 0.121933472
H  H20  1  0.77520000  0.45920000  0.18980000  1.0 0.121933472
H  H21  1  0.27520000  0.04080000  0.18980000  1.0 0.121933472
H  H22  1  0.27520000  0.45920000  0.31020000  1.0 0.121933472
H  H23  1  0.22480000  0.95920000  0.68980000  1.0 0.121933472
H  H24  1  0.22480000  0.54080000  0.81020000  1.0 0.121933472
H  H25  1  0.68190000  0.93630000  0.72640000  1.0 0.1413135712
H  H26  1  0.68190000  0.56370000  0.77360000  1.0 0.1413135712
H  H27  1  0.81810000  0.06370000  0.22640000  1.0 0.1413135712
H  H28  1  0.81810000  0.43630000  0.27360000  1.0 0.1413135712
H  H29  1  0.31810000  0.06370000  0.27360000  1.0 0.1413135712
H  H30  1  0.31810000  0.43630000  0.22640000  1.0 0.1413135712
H  H31  1  0.18190000  0.93630000  0.77360000  1.0 0.1413135712
H  H32  1  0.18190000  0.56370000  0.72640000  1.0 0.1413135712
H  H33  1  0.80260000  0.87360000  0.66560000  1.0 0.0769200369
H  H34  1  0.80260000  0.62640000  0.83440000  1.0 0.0769200369
H  H35  1  0.69740000  0.12640000  0.16560000  1.0 0.0769200369
H  H36  1  0.69740000  0.37360000  0.33440000  1.0 0.0769200369
H  H37  1  0.19740000  0.12640000  0.33440000  1.0 0.0769200369
H  H38  1  0.19740000  0.37360000  0.16560000  1.0 0.0769200369
H  H39  1  0.30260000  0.87360000  0.83440000  1.0 0.0769200369
H  H40  1  0.30260000  0.62640000  0.66560000  1.0 0.0769200369
H  H41  1  0.87830000  0.87740000  0.73360000  1.0 0.0986953182
H  H42  1  0.87830000  0.62260000  0.76640000  1.0 0.0986953182
H  H43  1  0.62170000  0.12260000  0.23360000  1.0 0.0986953182
H  H44  1  0.62170000  0.37740000  0.26640000  1.0 0.0986953182
H  H45  1  0.12170000  0.12260000  0.26640000  1.0 0.0986953182
H  H46  1  0.12170000  0.37740000  0.23360000  1.0 0.0986953182
H  H47  1  0.37830000  0.87740000  0.76640000  1.0 0.0986953182
H  H48  1  0.37830000  0.62260000  0.73360000  1.0 0.0986953182
H  H49  1  0.97740000  0.96010000  0.65120000  1.0 0.0986953182
H  H50  1  0.97740000  0.53990000  0.84880000  1.0 0.0986953182
H  H51  1  0.52260000  0.03990000  0.15120000  1.0 0.0986953182
H  H52  1  0.52260000  0.46010000  0.34880000  1.0 0.0986953182
H  H53  1  0.02260000  0.03990000  0.34880000  1.0 0.0986953182
H  H54  1  0.02260000  0.46010000  0.15120000  1.0 0.0986953182
H  H55  1  0.47740000  0.96010000  0.84880000  1.0 0.0986953182
H  H56  1  0.47740000  0.53990000  0.65120000  1.0 0.0986953182
H  H57  1  0.95340000  0.87530000  0.60660000  1.0 0.0986953182
H  H58  1  0.95340000  0.62470000  0.89340000  1.0 0.0986953182
H  H59  1  0.54660000  0.12470000  0.10660000  1.0 0.0986953182
H  H60  1  0.54660000  0.37530000  0.39340000  1.0 0.0986953182
H  H61  1  0.04660000  0.12470000  0.39340000  1.0 0.0986953182
H  H62  1  0.04660000  0.37530000  0.10660000  1.0 0.0986953182
H  H63  1  0.45340000  0.87530000  0.89340000  1.0 0.0986953182
H  H64  1  0.45340000  0.62470000  0.60660000  1.0 0.0986953182
H  H65  1  0.85480000  0.86480000  0.51020000  1.0 0.1095162169
H  H66  1  0.85480000  0.63520000  0.98980000  1.0 0.1095162169
H  H67  1  0.64520000  0.13520000  0.01020000  1.0 0.1095162169
H  H68  1  0.64520000  0.36480000  0.48980000  1.0 0.1095162169
H  H69  1  0.14520000  0.13520000  0.48980000  1.0 0.1095162169
H  H70  1  0.14520000  0.36480000  0.01020000  1.0 0.1095162169
H  H71  1  0.35480000  0.86480000  0.98980000  1.0 0.1095162169
H  H72  1  0.35480000  0.63520000  0.51020000  1.0 0.1095162169
H  H73  1  0.85290000  0.93930000  0.44840000  1.0 0.121933472
H  H74  1  0.85290000  0.56070000  0.05160000  1.0 0.121933472
H  H75  1  0.64710000  0.06070000  0.94840000  1.0 0.121933472
H  H76  1  0.64710000  0.43930000  0.55160000  1.0 0.121933472
H  H77  1  0.14710000  0.06070000  0.55160000  1.0 0.121933472
H  H78  1  0.14710000  0.43930000  0.94840000  1.0 0.121933472
H  H79  1  0.35290000  0.93930000  0.05160000  1.0 0.121933472
H  H80  1  0.35290000  0.56070000  0.44840000  1.0 0.121933472
H  H81  1  0.98930000  0.06630000  0.55610000  1.0 0.1095162169
H  H82  1  0.98930000  0.43370000  0.94390000  1.0 0.1095162169
H  H83  1  0.51070000  0.93370000  0.05610000  1.0 0.1095162169
H  H84  1  0.51070000  0.56630000  0.44390000  1.0 0.1095162169
H  H85  1  0.01070000  0.93370000  0.44390000  1.0 0.1095162169
H  H86  1  0.01070000  0.56630000  0.05610000  1.0 0.1095162169
H  H87  1  0.48930000  0.06630000  0.94390000  1.0 0.1095162169
H  H88  1  0.48930000  0.43370000  0.55610000  1.0 0.1095162169
H  H89  1  0.93290000  0.06080000  0.47600000  1.0 0.0926912834
H  H90  1  0.93290000  0.43920000  0.02400000  1.0 0.0926912834
H  H91  1  0.56710000  0.93920000  0.97600000  1.0 0.0926912834
H  H92  1  0.56710000  0.56080000  0.52400000  1.0 0.0926912834
H  H93  1  0.06710000  0.93920000  0.52400000  1.0 0.0926912834
H  H94  1  0.06710000  0.56080000  0.97600000  1.0 0.0926912834
H  H95  1  0.43290000  0.06080000  0.02400000  1.0 0.0926912834
H  H96  1  0.43290000  0.43920000  0.47600000  1.0 0.0926912834
C  C1  1  0.91290000  0.11740000  0.73710000  1.0 0.6269037087
C  C2  1  0.91290000  0.38260000  0.76290000  1.0 0.6269037087
C  C3  1  0.58710000  0.88260000  0.23710000  1.0 0.6269037087
C  C4  1  0.58710000  0.61740000  0.26290000  1.0 0.6269037087
C  C5  1  0.08710000  0.88260000  0.26290000  1.0 0.6269037087
C  C6  1  0.08710000  0.61740000  0.23710000  1.0 0.6269037087
C  C7  1  0.41290000  0.11740000  0.76290000  1.0 0.6269037087
C  C8  1  0.41290000  0.38260000  0.73710000  1.0 0.6269037087
C  C9  1  0.87500000  0.03530000  0.77200000  1.0 -0.2941647063
C  C10  1  0.87500000  0.46470000  0.72800000  1.0 -0.2941647063
C  C11  1  0.62500000  0.96470000  0.27200000  1.0 -0.2941647063
C  C12  1  0.62500000  0.53530000  0.22800000  1.0 -0.2941647063
C  C13  1  0.12500000  0.96470000  0.22800000  1.0 -0.2941647063
C  C14  1  0.12500000  0.53530000  0.27200000  1.0 -0.2941647063
C  C15  1  0.37500000  0.03530000  0.72800000  1.0 -0.2941647063
C  C16  1  0.37500000  0.46470000  0.77200000  1.0 -0.2941647063
C  C17  1  0.66700000  0.06340000  0.75370000  1.0 0.5901519914
C  C18  1  0.66700000  0.43660000  0.74630000  1.0 0.5901519914
C  C19  1  0.83300000  0.93660000  0.25370000  1.0 0.5901519914
C  C20  1  0.83300000  0.56340000  0.24630000  1.0 0.5901519914
C  C21  1  0.33300000  0.93660000  0.24630000  1.0 0.5901519914
C  C22  1  0.33300000  0.56340000  0.25370000  1.0 0.5901519914
C  C23  1  0.16700000  0.06340000  0.74630000  1.0 0.5901519914
C  C24  1  0.16700000  0.43660000  0.75370000  1.0 0.5901519914
C  C25  1  0.71790000  0.97840000  0.75540000  1.0 -0.2789999287
C  C26  1  0.71790000  0.52160000  0.74460000  1.0 -0.2789999287
C  C27  1  0.78210000  0.02160000  0.25540000  1.0 -0.2789999287
C  C28  1  0.78210000  0.47840000  0.24460000  1.0 -0.2789999287
C  C29  1  0.28210000  0.02160000  0.24460000  1.0 -0.2789999287
C  C30  1  0.28210000  0.47840000  0.25540000  1.0 -0.2789999287
C  C31  1  0.21790000  0.97840000  0.74460000  1.0 -0.2789999287
C  C32  1  0.21790000  0.52160000  0.75540000  1.0 -0.2789999287
C  C33  1  0.85110000  0.90840000  0.68930000  1.0 -0.1545140635
C  C34  1  0.85110000  0.59160000  0.81070000  1.0 -0.1545140635
C  C35  1  0.64890000  0.09160000  0.18930000  1.0 -0.1545140635
C  C36  1  0.64890000  0.40840000  0.31070000  1.0 -0.1545140635
C  C37  1  0.14890000  0.09160000  0.31070000  1.0 -0.1545140635
C  C38  1  0.14890000  0.40840000  0.18930000  1.0 -0.1545140635
C  C39  1  0.35110000  0.90840000  0.81070000  1.0 -0.1545140635
C  C40  1  0.35110000  0.59160000  0.68930000  1.0 -0.1545140635
C  C41  1  0.92730000  0.92790000  0.62650000  1.0 -0.1410976204
C  C42  1  0.92730000  0.57210000  0.87350000  1.0 -0.1410976204
C  C43  1  0.57270000  0.07210000  0.12650000  1.0 -0.1410976204
C  C44  1  0.57270000  0.42790000  0.37350000  1.0 -0.1410976204
C  C45  1  0.07270000  0.07210000  0.37350000  1.0 -0.1410976204
C  C46  1  0.07270000  0.42790000  0.12650000  1.0 -0.1410976204
C  C47  1  0.42730000  0.92790000  0.87350000  1.0 -0.1410976204
C  C48  1  0.42730000  0.57210000  0.62650000  1.0 -0.1410976204
C  C49  1  0.83580000  0.92320000  0.50240000  1.0 -0.2976959984
C  C50  1  0.83580000  0.57680000  0.99760000  1.0 -0.2976959984
C  C51  1  0.66420000  0.07680000  0.00240000  1.0 -0.2976959984
C  C52  1  0.66420000  0.42320000  0.49760000  1.0 -0.2976959984
C  C53  1  0.16420000  0.07680000  0.49760000  1.0 -0.2976959984
C  C54  1  0.16420000  0.42320000  0.00240000  1.0 -0.2976959984
C  C55  1  0.33580000  0.92320000  0.99760000  1.0 -0.2976959984
C  C56  1  0.33580000  0.57680000  0.50240000  1.0 -0.2976959984
C  C57  1  0.72980000  0.92880000  0.51080000  1.0 0.5901519914
C  C58  1  0.72980000  0.57120000  0.98920000  1.0 0.5901519914
C  C59  1  0.77020000  0.07120000  0.01080000  1.0 0.5901519914
C  C60  1  0.77020000  0.42880000  0.48920000  1.0 0.5901519914
C  C61  1  0.27020000  0.07120000  0.48920000  1.0 0.5901519914
C  C62  1  0.27020000  0.42880000  0.01080000  1.0 0.5901519914
C  C63  1  0.22980000  0.92880000  0.98920000  1.0 0.5901519914
C  C64  1  0.22980000  0.57120000  0.51080000  1.0 0.5901519914
C  C65  1  0.96150000  0.02740000  0.51810000  1.0 -0.1410976204
C  C66  1  0.96150000  0.47260000  0.98190000  1.0 -0.1410976204
C  C67  1  0.53850000  0.97260000  0.01810000  1.0 -0.1410976204
C  C68  1  0.53850000  0.52740000  0.48190000  1.0 -0.1410976204
C  C69  1  0.03850000  0.97260000  0.48190000  1.0 -0.1410976204
C  C70  1  0.03850000  0.52740000  0.01810000  1.0 -0.1410976204
C  C71  1  0.46150000  0.02740000  0.98190000  1.0 -0.1410976204
C  C72  1  0.46150000  0.47260000  0.51810000  1.0 -0.1410976204
C  C73  1  0.74110000  0.16270000  0.46380000  1.0 0.0986953182
C  C74  1  0.74110000  0.33730000  0.03620000  1.0 0.0986953182
C  C75  1  0.75890000  0.83730000  0.96380000  1.0 0.0986953182
C  C76  1  0.75890000  0.66270000  0.53620000  1.0 0.0986953182
C  C77  1  0.25890000  0.83730000  0.53620000  1.0 0.0986953182
C  C78  1  0.25890000  0.66270000  0.96380000  1.0 0.0986953182
C  C79  1  0.24110000  0.16270000  0.03620000  1.0 0.0986953182
C  C80  1  0.24110000  0.33730000  0.46380000  1.0 0.0986953182
C  C81  1  0.77960000  0.17710000  0.46350000  1.0 0.1095162169
C  C82  1  0.77960000  0.32290000  0.03650000  1.0 0.1095162169
C  C83  1  0.72040000  0.82290000  0.96350000  1.0 0.0986953182
C  C84  1  0.72040000  0.67710000  0.53650000  1.0 0.0986953182
C  C85  1  0.22040000  0.82290000  0.53650000  1.0 0.0986953182
C  C86  1  0.22040000  0.67710000  0.96350000  1.0 0.0986953182
C  C87  1  0.27960000  0.17710000  0.03650000  1.0 0.1095162169
C  C88  1  0.27960000  0.32290000  0.46350000  1.0 0.1095162169
S  S1  1  0.69820000  0.20580000  0.37940000  1.0 -0.0297596938
S  S2  1  0.69820000  0.29420000  0.12060000  1.0 -0.0297596938
S  S3  1  0.80180000  0.79420000  0.87940000  1.0 -0.0249128643
S  S4  1  0.80180000  0.70580000  0.62060000  1.0 -0.0297596938
S  S5  1  0.30180000  0.79420000  0.62060000  1.0 -0.0297596938
S  S6  1  0.30180000  0.70580000  0.87940000  1.0 -0.0249128643
S  S7  1  0.19820000  0.20580000  0.12060000  1.0 -0.0297596938
S  S8  1  0.19820000  0.29420000  0.37940000  1.0 -0.0297596938
S  S9  1  0.78900000  0.22200000  0.37060000  1.0 -0.0068826558
S  S10  1  0.78900000  0.27800000  0.12940000  1.0 -0.0068826558
S  S11  1  0.71100000  0.77800000  0.87060000  1.0 -0.0068826558
S  S12  1  0.71100000  0.72200000  0.62940000  1.0 -0.0068826558
S  S13  1  0.21100000  0.77800000  0.62940000  1.0 -0.0068826558
S  S14  1  0.21100000  0.72200000  0.87060000  1.0 -0.0068826558
S  S15  1  0.28900000  0.22200000  0.12940000  1.0 -0.0068826558
S  S16  1  0.28900000  0.27800000  0.37060000  1.0 -0.0068826558
N  N1  1  0.81050000  0.98860000  0.71840000  1.0 -0.0297596938
N  N2  1  0.81050000  0.51140000  0.78160000  1.0 -0.0297596938
N  N3  1  0.68950000  0.01140000  0.21840000  1.0 -0.0297596938
N  N4  1  0.68950000  0.48860000  0.28160000  1.0 -0.0297596938
N  N5  1  0.18950000  0.01140000  0.28160000  1.0 -0.0297596938
N  N6  1  0.18950000  0.48860000  0.21840000  1.0 -0.0297596938
N  N7  1  0.31050000  0.98860000  0.78160000  1.0 -0.0297596938
N  N8  1  0.31050000  0.51140000  0.71840000  1.0 -0.0297596938
N  N9  1  0.88740000  0.97710000  0.55910000  1.0 -0.0838850125
N  N10  1  0.88740000  0.52290000  0.94090000  1.0 -0.0838850125
N  N11  1  0.61260000  0.02290000  0.05910000  1.0 -0.0838850125
N  N12  1  0.61260000  0.47710000  0.44090000  1.0 -0.0838850125
N  N13  1  0.11260000  0.02290000  0.44090000  1.0 -0.0838850125
N  N14  1  0.11260000  0.47710000  0.05910000  1.0 -0.0838850125
N  N15  1  0.38740000  0.97710000  0.94090000  1.0 -0.0838850125
N  N16  1  0.38740000  0.52290000  0.55910000  1.0 -0.0838850125
N  N17  1  0.76950000  0.14160000  0.52120000  1.0 -0.2789999287
N  N18  1  0.76950000  0.35840000  0.97880000  1.0 -0.2789999287
N  N19  1  0.73050000  0.85840000  0.02120000  1.0 -0.2789999287
N  N20  1  0.73050000  0.64160000  0.47880000  1.0 -0.2789999287
N  N21  1  0.23050000  0.85840000  0.47880000  1.0 -0.2789999287
N  N22  1  0.23050000  0.64160000  0.02120000  1.0 -0.2789999287
N  N23  1  0.26950000  0.14160000  0.97880000  1.0 -0.2789999287
N  N24  1  0.26950000  0.35840000  0.52120000  1.0 -0.2789999287
O  O1  1  0.88620000  0.13880000  0.66720000  1.0 -0.5477993529
O  O2  1  0.88620000  0.36120000  0.83280000  1.0 -0.5477993529
O  O3  1  0.61380000  0.86120000  0.16720000  1.0 -0.5477993529
O  O4  1  0.61380000  0.63880000  0.33280000  1.0 -0.5477993529
O  O5  1  0.11380000  0.86120000  0.33280000  1.0 -0.5477993529
O  O6  1  0.11380000  0.63880000  0.16720000  1.0 -0.5477993529
O  O7  1  0.38620000  0.13880000  0.83280000  1.0 -0.5477993529
O  O8  1  0.38620000  0.36120000  0.66720000  1.0 -0.5477993529
O  O9  1  0.96790000  0.15880000  0.77770000  1.0 -0.5477993529
O  O10  1  0.96790000  0.34120000  0.72230000  1.0 -0.5477993529
O  O11  1  0.53210000  0.84120000  0.27770000  1.0 -0.5477993529
O  O12  1  0.53210000  0.65880000  0.22230000  1.0 -0.5477993529
O  O13  1  0.03210000  0.84120000  0.22230000  1.0 -0.5477993529
O  O14  1  0.03210000  0.65880000  0.27770000  1.0 -0.5477993529
O  O15  1  0.46790000  0.15880000  0.72230000  1.0 -0.5477993529
O  O16  1  0.46790000  0.34120000  0.77770000  1.0 -0.5477993529
O  O17  1  0.68120000  0.10940000  0.69080000  1.0 -0.5978138636
O  O18  1  0.68120000  0.39060000  0.80920000  1.0 -0.5978138636
O  O19  1  0.81880000  0.89060000  0.19080000  1.0 -0.5978138636
O  O20  1  0.81880000  0.60940000  0.30920000  1.0 -0.5978138636
O  O21  1  0.31880000  0.89060000  0.30920000  1.0 -0.5978138636
O  O22  1  0.31880000  0.60940000  0.19080000  1.0 -0.5978138636
O  O23  1  0.18120000  0.10940000  0.80920000  1.0 -0.5978138636
O  O24  1  0.18120000  0.39060000  0.69080000  1.0 -0.5978138636
O  O25  1  0.61610000  0.08650000  0.80900000  1.0 -0.5349373858
O  O26  1  0.61610000  0.41350000  0.69100000  1.0 -0.5349373858
O  O27  1  0.88390000  0.91350000  0.30900000  1.0 -0.5362412695
O  O28  1  0.88390000  0.58650000  0.19100000  1.0 -0.5362412695
O  O29  1  0.38390000  0.91350000  0.19100000  1.0 -0.5362412695
O  O30  1  0.38390000  0.58650000  0.30900000  1.0 -0.5362412695
O  O31  1  0.11610000  0.08650000  0.69100000  1.0 -0.5349373858
O  O32  1  0.11610000  0.41350000  0.80900000  1.0 -0.5362412695
O  O33  1  0.69440000  0.97480000  0.56400000  1.0 -0.5197250436
O  O34  1  0.69440000  0.52520000  0.93600000  1.0 -0.5197250436
O  O35  1  0.80560000  0.02520000  0.06400000  1.0 -0.5197250436
O  O36  1  0.80560000  0.47480000  0.43600000  1.0 -0.5197250436
O  O37  1  0.30560000  0.02520000  0.43600000  1.0 -0.5197250436
O  O38  1  0.30560000  0.47480000  0.06400000  1.0 -0.5197250436
O  O39  1  0.19440000  0.97480000  0.93600000  1.0 -0.5197250436
O  O40  1  0.19440000  0.52520000  0.56400000  1.0 -0.5197250436
O  O41  1  0.68310000  0.88480000  0.46210000  1.0 -0.5362412695
O  O42  1  0.68310000  0.61520000  0.03790000  1.0 -0.5362412695
O  O43  1  0.81690000  0.11520000  0.96210000  1.0 -0.5362412695
O  O44  1  0.81690000  0.38480000  0.53790000  1.0 -0.5362412695
O  O45  1  0.31690000  0.11520000  0.53790000  1.0 -0.5362412695
O  O46  1  0.31690000  0.38480000  0.96210000  1.0 -0.5362412695
O  O47  1  0.18310000  0.88480000  0.03790000  1.0 -0.5362412695
O  O48  1  0.18310000  0.61520000  0.46210000  1.0 -0.5362412695
