# DDEC6 charges by PACMAN v1.1 (https://github.com/mtap-research/PACMAN-charge/)
data_WICNII_ASR_pacman
_symmetry_space_group_name_H-M   'P 1'
_cell_length_a   19.34430000
_cell_length_b   19.34430000
_cell_length_c   7.26060000
_cell_angle_alpha   90.00000000
_cell_angle_beta   90.00000000
_cell_angle_gamma   90.00000000
_symmetry_Int_Tables_number   1
_chemical_formula_structural   Na2Tb2H23(C8O5)5
_chemical_formula_sum   'Na4 Tb4 H46 C80 O50'
_cell_volume   2716.93062364
_cell_formula_units_Z   2
loop_
 _symmetry_equiv_pos_site_id
 _symmetry_equiv_pos_as_xyz
  1  'x, y, z'
loop_
 _atom_site_type_symbol
 _atom_site_label
 _atom_site_symmetry_multiplicity
 _atom_site_fract_x
 _atom_site_fract_y
 _atom_site_fract_z
 _atom_site_occupancy
 _atom_site_charge
Na  Na1  1  0.30870000  0.19130000  0.03810000  1.0 0.8895195589
Na  Na2  1  0.69130000  0.80870000  0.03810000  1.0 0.8895195589
Na  Na3  1  0.80870000  0.30870000  0.96190000  1.0 0.8895195589
Na  Na4  1  0.19130000  0.69130000  0.96190000  1.0 0.8895195589
Tb  Tb1  1  0.81532000  0.31532000  0.44087000  1.0 1.8993004874
Tb  Tb2  1  0.18468000  0.68468000  0.44087000  1.0 1.8993004874
Tb  Tb3  1  0.68468000  0.81532000  0.55913000  1.0 1.8993004874
Tb  Tb4  1  0.31532000  0.18468000  0.55913000  1.0 1.8993004874
H  H1  1  0.52990000  0.26090000  0.70550000  1.0 0.361430315
H  H2  1  0.55910000  0.28060000  0.44710000  1.0 0.1224527225
H  H3  1  0.43600000  0.26590000  0.00650000  1.0 0.1388804379
H  H4  1  0.63700000  0.31820000  0.94870000  1.0 0.1388804379
H  H5  1  0.47010000  0.73910000  0.70550000  1.0 0.361430315
H  H6  1  0.44090000  0.71940000  0.44710000  1.0 0.1224527225
H  H7  1  0.56400000  0.73410000  0.00650000  1.0 0.1388804379
H  H8  1  0.36300000  0.68180000  0.94870000  1.0 0.1388804379
H  H9  1  0.73910000  0.52990000  0.29450000  1.0 0.361430315
H  H10  1  0.71940000  0.55910000  0.55290000  1.0 0.1224527225
H  H11  1  0.73410000  0.43600000  0.99350000  1.0 0.1388804379
H  H12  1  0.68180000  0.63700000  0.05130000  1.0 0.1388804379
H  H13  1  0.26090000  0.47010000  0.29450000  1.0 0.361430315
H  H14  1  0.28060000  0.44090000  0.55290000  1.0 0.1224527225
H  H15  1  0.26590000  0.56400000  0.99350000  1.0 0.1388804379
H  H16  1  0.31820000  0.36300000  0.05130000  1.0 0.1388804379
H  H17  1  0.97010000  0.76090000  0.29450000  1.0 0.361430315
H  H18  1  0.94090000  0.78060000  0.55290000  1.0 0.1224527225
H  H19  1  0.06400000  0.76590000  0.99350000  1.0 0.1388804379
H  H20  1  0.86300000  0.81820000  0.05130000  1.0 0.1388804379
H  H21  1  0.02990000  0.23910000  0.29450000  1.0 0.361430315
H  H22  1  0.05910000  0.21940000  0.55290000  1.0 0.1224527225
H  H23  1  0.93600000  0.23410000  0.99350000  1.0 0.1388804379
H  H24  1  0.13700000  0.18180000  0.05130000  1.0 0.1388804379
H  H25  1  0.76090000  0.02990000  0.70550000  1.0 0.361430315
H  H26  1  0.78060000  0.05910000  0.44710000  1.0 0.1224527225
H  H27  1  0.76590000  0.93600000  0.00650000  1.0 0.1388804379
H  H28  1  0.81820000  0.13700000  0.94870000  1.0 0.1388804379
H  H29  1  0.23910000  0.97010000  0.70550000  1.0 0.361430315
H  H30  1  0.21940000  0.94090000  0.44710000  1.0 0.1224527225
H  H31  1  0.23410000  0.06400000  0.00650000  1.0 0.1388804379
H  H32  1  0.18180000  0.86300000  0.94870000  1.0 0.1388804379
H  H33  1  0.93690000  0.43690000  0.48240000  1.0 0.2811340258
H  H34  1  0.92720000  0.42720000  0.92090000  1.0 0.1542409637
H  H35  1  0.06310000  0.56310000  0.48240000  1.0 0.2811340258
H  H36  1  0.07280000  0.57280000  0.92090000  1.0 0.1542409637
H  H37  1  0.56310000  0.93690000  0.51760000  1.0 0.2811340258
H  H38  1  0.57280000  0.92720000  0.07910000  1.0 0.1542409637
H  H39  1  0.43690000  0.06310000  0.51760000  1.0 0.2811340258
H  H40  1  0.42720000  0.07280000  0.07910000  1.0 0.1542409637
H  H41  1  0.00000000  0.50000000  0.40040000  1.0 0.0878712848
H  H42  1  0.50000000  0.00000000  0.59960000  1.0 0.0878712848
H  H43  1  0.02790000  0.47210000  0.66666667  1.0 0.299185069
H  H44  1  0.97210000  0.52790000  0.66666667  1.0 0.299185069
H  H45  1  0.52790000  0.02790000  0.33333333  1.0 0.299185069
H  H46  1  0.47210000  0.97210000  0.33333333  1.0 0.299185069
C  C1  1  0.42870000  0.24110000  0.36000000  1.0 0.5701723189
C  C2  1  0.48790000  0.26350000  0.24600000  1.0 -0.0173702336
C  C3  1  0.55290000  0.28060000  0.32000000  1.0 -0.151621478
C  C4  1  0.47970000  0.27240000  0.05700000  1.0 -0.2494374424
C  C5  1  0.67920000  0.30920000  0.28400000  1.0 0.5813081578
C  C6  1  0.60670000  0.29710000  0.20800000  1.0 0.0089569827
C  C7  1  0.59950000  0.30440000  0.02000000  1.0 -0.2494374424
C  C8  1  0.53480000  0.29100000  0.93600000  1.0 0.3288674966
C  C9  1  0.57130000  0.75890000  0.36000000  1.0 0.5701723189
C  C10  1  0.51210000  0.73650000  0.24600000  1.0 -0.0173702336
C  C11  1  0.44710000  0.71940000  0.32000000  1.0 -0.151621478
C  C12  1  0.52030000  0.72760000  0.05700000  1.0 -0.2494374424
C  C13  1  0.32080000  0.69080000  0.28400000  1.0 0.5813081578
C  C14  1  0.39330000  0.70290000  0.20800000  1.0 0.0089569827
C  C15  1  0.40050000  0.69560000  0.02000000  1.0 -0.2494374424
C  C16  1  0.46520000  0.70900000  0.93600000  1.0 0.3288674966
C  C17  1  0.75890000  0.42870000  0.64000000  1.0 0.5701723189
C  C18  1  0.73650000  0.48790000  0.75400000  1.0 -0.0173702336
C  C19  1  0.71940000  0.55290000  0.68000000  1.0 -0.151621478
C  C20  1  0.72760000  0.47970000  0.94300000  1.0 -0.2436357423
C  C21  1  0.69080000  0.67920000  0.71600000  1.0 0.5813081578
C  C22  1  0.70290000  0.60670000  0.79200000  1.0 0.0089569827
C  C23  1  0.69560000  0.59950000  0.98000000  1.0 -0.2494374424
C  C24  1  0.70900000  0.53480000  0.06400000  1.0 0.3288674966
C  C25  1  0.24110000  0.57130000  0.64000000  1.0 0.5701723189
C  C26  1  0.26350000  0.51210000  0.75400000  1.0 -0.0173702336
C  C27  1  0.28060000  0.44710000  0.68000000  1.0 -0.151621478
C  C28  1  0.27240000  0.52030000  0.94300000  1.0 -0.2436357423
C  C29  1  0.30920000  0.32080000  0.71600000  1.0 0.5813081578
C  C30  1  0.29710000  0.39330000  0.79200000  1.0 0.0089569827
C  C31  1  0.30440000  0.40050000  0.98000000  1.0 -0.2494374424
C  C32  1  0.29100000  0.46520000  0.06400000  1.0 0.3288674966
C  C33  1  0.07130000  0.74110000  0.64000000  1.0 0.5701723189
C  C34  1  0.01210000  0.76350000  0.75400000  1.0 -0.0173702336
C  C35  1  0.94710000  0.78060000  0.68000000  1.0 -0.151621478
C  C36  1  0.02030000  0.77240000  0.94300000  1.0 -0.2436357423
C  C37  1  0.82080000  0.80920000  0.71600000  1.0 0.5813081578
C  C38  1  0.89330000  0.79710000  0.79200000  1.0 0.0089569827
C  C39  1  0.90050000  0.80440000  0.98000000  1.0 -0.2494374424
C  C40  1  0.96520000  0.79100000  0.06400000  1.0 0.3288674966
C  C41  1  0.92870000  0.25890000  0.64000000  1.0 0.5701723189
C  C42  1  0.98790000  0.23650000  0.75400000  1.0 -0.0173702336
C  C43  1  0.05290000  0.21940000  0.68000000  1.0 -0.151621478
C  C44  1  0.97970000  0.22760000  0.94300000  1.0 -0.2436357423
C  C45  1  0.17920000  0.19080000  0.71600000  1.0 0.5813081578
C  C46  1  0.10670000  0.20290000  0.79200000  1.0 0.0089569827
C  C47  1  0.09950000  0.19560000  0.98000000  1.0 -0.2494374424
C  C48  1  0.03480000  0.20900000  0.06400000  1.0 0.3288674966
C  C49  1  0.74110000  0.92870000  0.36000000  1.0 0.5701723189
C  C50  1  0.76350000  0.98790000  0.24600000  1.0 -0.0173702336
C  C51  1  0.78060000  0.05290000  0.32000000  1.0 -0.151621478
C  C52  1  0.77240000  0.97970000  0.05700000  1.0 -0.2494374424
C  C53  1  0.80920000  0.17920000  0.28400000  1.0 0.5813081578
C  C54  1  0.79710000  0.10670000  0.20800000  1.0 0.0089569827
C  C55  1  0.80440000  0.09950000  0.02000000  1.0 -0.2494374424
C  C56  1  0.79100000  0.03480000  0.93600000  1.0 0.3288674966
C  C57  1  0.25890000  0.07130000  0.36000000  1.0 0.5701723189
C  C58  1  0.23650000  0.01210000  0.24600000  1.0 -0.0173702336
C  C59  1  0.21940000  0.94710000  0.32000000  1.0 -0.151621478
C  C60  1  0.22760000  0.02030000  0.05700000  1.0 -0.2494374424
C  C61  1  0.19080000  0.82080000  0.28400000  1.0 0.5813081578
C  C62  1  0.20290000  0.89330000  0.20800000  1.0 0.0089569827
C  C63  1  0.19560000  0.90050000  0.02000000  1.0 -0.2494374424
C  C64  1  0.20900000  0.96520000  0.93600000  1.0 0.3288674966
C  C65  1  0.90850000  0.40850000  0.28500000  1.0 0.5305759028
C  C66  1  0.95550000  0.45550000  0.18100000  1.0 0.0089569827
C  C67  1  0.95630000  0.45630000  0.98700000  1.0 -0.2197394182
C  C68  1  0.09150000  0.59150000  0.28500000  1.0 0.5305759028
C  C69  1  0.04450000  0.54450000  0.18100000  1.0 0.0089569827
C  C70  1  0.04370000  0.54370000  0.98700000  1.0 -0.2197394182
C  C71  1  0.59150000  0.90850000  0.71500000  1.0 0.5305759028
C  C72  1  0.54450000  0.95550000  0.81900000  1.0 0.0089569827
C  C73  1  0.54370000  0.95630000  0.01300000  1.0 -0.2197394182
C  C74  1  0.40850000  0.09150000  0.71500000  1.0 0.5305759028
C  C75  1  0.45550000  0.04450000  0.81900000  1.0 0.0089569827
C  C76  1  0.45630000  0.04370000  0.01300000  1.0 -0.2197394182
C  C77  1  0.00000000  0.50000000  0.27200000  1.0 -0.2197394182
C  C78  1  0.00000000  0.50000000  0.89800000  1.0 0.2240274713
C  C79  1  0.50000000  0.00000000  0.72800000  1.0 -0.2197394182
C  C80  1  0.50000000  0.00000000  0.10200000  1.0 0.2240274713
O  O1  1  0.43440000  0.24200000  0.53100000  1.0 -0.5901197179
O  O2  1  0.37380000  0.22540000  0.28300000  1.0 -0.6665491521
O  O3  1  0.68880000  0.29320000  0.45600000  1.0 -0.6095347948
O  O4  1  0.72720000  0.32910000  0.19300000  1.0 -0.6095347948
O  O5  1  0.52570000  0.29880000  0.75500000  1.0 -0.4151974007
O  O6  1  0.56560000  0.75800000  0.53100000  1.0 -0.5901197179
O  O7  1  0.62620000  0.77460000  0.28300000  1.0 -0.6665491521
O  O8  1  0.31120000  0.70680000  0.45600000  1.0 -0.6095347948
O  O9  1  0.27280000  0.67090000  0.19300000  1.0 -0.6095347948
O  O10  1  0.47430000  0.70120000  0.75500000  1.0 -0.4151974007
O  O11  1  0.75800000  0.43440000  0.46900000  1.0 -0.5901197179
O  O12  1  0.77460000  0.37380000  0.71700000  1.0 -0.6665491521
O  O13  1  0.70680000  0.68880000  0.54400000  1.0 -0.6095347948
O  O14  1  0.67090000  0.72720000  0.80700000  1.0 -0.6095347948
O  O15  1  0.70120000  0.52570000  0.24500000  1.0 -0.4146273717
O  O16  1  0.24200000  0.56560000  0.46900000  1.0 -0.5901197179
O  O17  1  0.22540000  0.62620000  0.71700000  1.0 -0.6665491521
O  O18  1  0.29320000  0.31120000  0.54400000  1.0 -0.6095347948
O  O19  1  0.32910000  0.27280000  0.80700000  1.0 -0.6095347948
O  O20  1  0.29880000  0.47430000  0.24500000  1.0 -0.4146273717
O  O21  1  0.06560000  0.74200000  0.46900000  1.0 -0.5901197179
O  O22  1  0.12620000  0.72540000  0.71700000  1.0 -0.6665491521
O  O23  1  0.81120000  0.79320000  0.54400000  1.0 -0.6095347948
O  O24  1  0.77280000  0.82910000  0.80700000  1.0 -0.6095347948
O  O25  1  0.97430000  0.79880000  0.24500000  1.0 -0.4146273717
O  O26  1  0.93440000  0.25800000  0.46900000  1.0 -0.5901197179
O  O27  1  0.87380000  0.27460000  0.71700000  1.0 -0.6665491521
O  O28  1  0.18880000  0.20680000  0.54400000  1.0 -0.6095347948
O  O29  1  0.22720000  0.17090000  0.80700000  1.0 -0.6095347948
O  O30  1  0.02570000  0.20120000  0.24500000  1.0 -0.4146273717
O  O31  1  0.74200000  0.93440000  0.53100000  1.0 -0.5901197179
O  O32  1  0.72540000  0.87380000  0.28300000  1.0 -0.6665491521
O  O33  1  0.79320000  0.18880000  0.45600000  1.0 -0.6095347948
O  O34  1  0.82910000  0.22720000  0.19300000  1.0 -0.6095347948
O  O35  1  0.79880000  0.02570000  0.75500000  1.0 -0.4146273717
O  O36  1  0.25800000  0.06560000  0.53100000  1.0 -0.5901197179
O  O37  1  0.27460000  0.12620000  0.28300000  1.0 -0.6665491521
O  O38  1  0.20680000  0.81120000  0.45600000  1.0 -0.6095347948
O  O39  1  0.17090000  0.77280000  0.19300000  1.0 -0.6095347948
O  O40  1  0.20120000  0.97430000  0.75500000  1.0 -0.4151974007
O  O41  1  0.90860000  0.40860000  0.44500000  1.0 -0.3735057845
O  O42  1  0.87020000  0.37020000  0.17500000  1.0 -0.699240832
O  O43  1  0.09140000  0.59140000  0.44500000  1.0 -0.3735057845
O  O44  1  0.12980000  0.62980000  0.17500000  1.0 -0.699240832
O  O45  1  0.59140000  0.90860000  0.55500000  1.0 -0.3735057845
O  O46  1  0.62980000  0.87020000  0.82500000  1.0 -0.699240832
O  O47  1  0.40860000  0.09140000  0.55500000  1.0 -0.3735057845
O  O48  1  0.37020000  0.12980000  0.82500000  1.0 -0.699240832
O  O49  1  0.00000000  0.50000000  0.70400000  1.0 -0.4146273717
O  O50  1  0.50000000  0.00000000  0.29600000  1.0 -0.4146273717
