# DDEC6 charges by PACMAN v1.1 (https://github.com/mtap-research/PACMAN-charge/)
data_WICSUA_ASR_pacman
_symmetry_space_group_name_H-M   'P 1'
_cell_length_a   18.09640000
_cell_length_b   18.09640000
_cell_length_c   15.20350000
_cell_angle_alpha   90.00000000
_cell_angle_beta   90.00000000
_cell_angle_gamma   120.00000000
_symmetry_Int_Tables_number   1
_chemical_formula_structural   Tb3H24C48N4(O9F2)2
_chemical_formula_sum   'Tb6 H48 C96 N8 O36 F8'
_cell_volume   4311.79976664
_cell_formula_units_Z   2
loop_
 _symmetry_equiv_pos_site_id
 _symmetry_equiv_pos_as_xyz
  1  'x, y, z'
loop_
 _atom_site_type_symbol
 _atom_site_label
 _atom_site_symmetry_multiplicity
 _atom_site_fract_x
 _atom_site_fract_y
 _atom_site_fract_z
 _atom_site_occupancy
 _atom_site_charge
Tb  Tb1  1  0.87383000  0.87383000  0.39559000  1.0 2.1658235318
Tb  Tb2  1  0.12617000  0.00000000  0.39559000  1.0 2.1658235318
Tb  Tb3  1  0.00000000  0.12617000  0.39559000  1.0 2.1646551854
Tb  Tb4  1  0.12617000  0.12617000  0.60441000  1.0 2.1658235318
Tb  Tb5  1  0.87383000  0.00000000  0.60441000  1.0 2.1658235318
Tb  Tb6  1  0.00000000  0.87383000  0.60441000  1.0 2.1658235318
H  H1  1  0.59592000  0.87408000  0.10154000  1.0 0.141453459
H  H2  1  0.12592000  0.72184000  0.10154000  1.0 0.141453459
H  H3  1  0.27816000  0.40408000  0.10154000  1.0 0.141453459
H  H4  1  0.12592000  0.40408000  0.89846000  1.0 0.1451716787
H  H5  1  0.59592000  0.72184000  0.89846000  1.0 0.141453459
H  H6  1  0.27816000  0.87408000  0.89846000  1.0 0.1451716787
H  H7  1  0.40408000  0.12592000  0.89846000  1.0 0.141453459
H  H8  1  0.87408000  0.27816000  0.89846000  1.0 0.141453459
H  H9  1  0.72184000  0.59592000  0.89846000  1.0 0.1451716787
H  H10  1  0.87408000  0.59592000  0.10154000  1.0 0.1451716787
H  H11  1  0.40408000  0.27816000  0.10154000  1.0 0.141453459
H  H12  1  0.72184000  0.12592000  0.10154000  1.0 0.141453459
H  H13  1  0.87443000  0.58741000  0.58860000  1.0 0.1344216631
H  H14  1  0.41259000  0.28702000  0.58860000  1.0 0.1344216631
H  H15  1  0.71298000  0.12557000  0.58860000  1.0 0.1344216631
H  H16  1  0.41259000  0.12557000  0.41140000  1.0 0.1344216631
H  H17  1  0.87443000  0.28702000  0.41140000  1.0 0.1344216631
H  H18  1  0.71298000  0.58741000  0.41140000  1.0 0.1344216631
H  H19  1  0.12557000  0.41259000  0.41140000  1.0 0.1344216631
H  H20  1  0.58741000  0.71298000  0.41140000  1.0 0.1344216631
H  H21  1  0.28702000  0.87443000  0.41140000  1.0 0.1344216631
H  H22  1  0.58741000  0.87443000  0.58860000  1.0 0.1344216631
H  H23  1  0.12557000  0.71298000  0.58860000  1.0 0.1344216631
H  H24  1  0.28702000  0.41259000  0.58860000  1.0 0.1344216631
H  H25  1  0.69530000  0.86640000  0.19609000  1.0 0.1344216631
H  H26  1  0.13360000  0.82890000  0.19609000  1.0 0.1344216631
H  H27  1  0.17110000  0.30470000  0.19609000  1.0 0.1344216631
H  H28  1  0.13360000  0.30470000  0.80391000  1.0 0.1344216631
H  H29  1  0.69530000  0.82890000  0.80391000  1.0 0.1344216631
H  H30  1  0.17110000  0.86640000  0.80391000  1.0 0.1344216631
H  H31  1  0.30470000  0.13360000  0.80391000  1.0 0.1344216631
H  H32  1  0.86640000  0.17110000  0.80391000  1.0 0.1344216631
H  H33  1  0.82890000  0.69530000  0.80391000  1.0 0.1344216631
H  H34  1  0.86640000  0.69530000  0.19609000  1.0 0.1344216631
H  H35  1  0.30470000  0.17110000  0.19609000  1.0 0.1344216631
H  H36  1  0.82890000  0.13360000  0.19609000  1.0 0.1344216631
H  H37  1  0.80050000  0.44046000  0.59653000  1.0 0.141453459
H  H38  1  0.55954000  0.36004000  0.59653000  1.0 0.141453459
H  H39  1  0.63996000  0.19950000  0.59653000  1.0 0.141453459
H  H40  1  0.55954000  0.19950000  0.40347000  1.0 0.141453459
H  H41  1  0.80050000  0.36004000  0.40347000  1.0 0.141453459
H  H42  1  0.63996000  0.44046000  0.40347000  1.0 0.141453459
H  H43  1  0.19950000  0.55954000  0.40347000  1.0 0.141453459
H  H44  1  0.44046000  0.63996000  0.40347000  1.0 0.141453459
H  H45  1  0.36004000  0.80050000  0.40347000  1.0 0.141453459
H  H46  1  0.44046000  0.80050000  0.59653000  1.0 0.141453459
H  H47  1  0.19950000  0.63996000  0.59653000  1.0 0.141453459
H  H48  1  0.36004000  0.55954000  0.59653000  1.0 0.141453459
C  C1  1  0.64250000  0.92570000  0.12120000  1.0 -0.1755413496
C  C2  1  0.07430000  0.71680000  0.12120000  1.0 -0.1755413496
C  C3  1  0.28320000  0.35750000  0.12120000  1.0 -0.1746949686
C  C4  1  0.07430000  0.35750000  0.87880000  1.0 -0.1746949686
C  C5  1  0.64250000  0.71680000  0.87880000  1.0 -0.1755413496
C  C6  1  0.28320000  0.92570000  0.87880000  1.0 -0.1746949686
C  C7  1  0.35750000  0.07430000  0.87880000  1.0 -0.1746949686
C  C8  1  0.92570000  0.28320000  0.87880000  1.0 -0.1755413496
C  C9  1  0.71680000  0.64250000  0.87880000  1.0 -0.1746949686
C  C10  1  0.92570000  0.64250000  0.12120000  1.0 -0.1755413496
C  C11  1  0.35750000  0.28320000  0.12120000  1.0 -0.1746949686
C  C12  1  0.71680000  0.07430000  0.12120000  1.0 -0.1755413496
C  C13  1  0.64510000  0.00000000  0.09300000  1.0 0.198621374
C  C14  1  0.00000000  0.64510000  0.09300000  1.0 0.198621374
C  C15  1  0.35490000  0.35490000  0.09300000  1.0 0.198621374
C  C16  1  0.00000000  0.35490000  0.90700000  1.0 0.198621374
C  C17  1  0.64510000  0.64510000  0.90700000  1.0 0.198621374
C  C18  1  0.35490000  0.00000000  0.90700000  1.0 0.198621374
C  C19  1  0.80105000  0.60210000  0.50000000  1.0 -0.0489873819
C  C20  1  0.39790000  0.19895000  0.50000000  1.0 -0.0489873819
C  C21  1  0.80105000  0.19895000  0.50000000  1.0 -0.0489873819
C  C22  1  0.19895000  0.39790000  0.50000000  1.0 -0.0489873819
C  C23  1  0.60210000  0.80105000  0.50000000  1.0 -0.0489873819
C  C24  1  0.19895000  0.80105000  0.50000000  1.0 -0.0489873819
C  C25  1  0.84870000  0.69740000  0.50000000  1.0 0.6506060726
C  C26  1  0.30260000  0.15130000  0.50000000  1.0 0.6506060726
C  C27  1  0.84870000  0.15130000  0.50000000  1.0 0.6506060726
C  C28  1  0.15130000  0.30260000  0.50000000  1.0 0.6506060726
C  C29  1  0.69740000  0.84870000  0.50000000  1.0 0.6506060726
C  C30  1  0.15130000  0.84870000  0.50000000  1.0 0.6506060726
C  C31  1  0.84400000  0.00000000  0.25400000  1.0 0.6387578911
C  C32  1  0.00000000  0.84400000  0.25400000  1.0 0.6387578911
C  C33  1  0.15600000  0.15600000  0.25400000  1.0 0.6387578911
C  C34  1  0.00000000  0.15600000  0.74600000  1.0 0.6387578911
C  C35  1  0.84400000  0.84400000  0.74600000  1.0 0.6387578911
C  C36  1  0.15600000  0.00000000  0.74600000  1.0 0.6387578911
C  C37  1  0.82580000  0.55680000  0.55320000  1.0 -0.0666665555
C  C38  1  0.44320000  0.26900000  0.55320000  1.0 -0.0666665555
C  C39  1  0.73100000  0.17420000  0.55320000  1.0 -0.0666665555
C  C40  1  0.44320000  0.17420000  0.44680000  1.0 -0.0666665555
C  C41  1  0.82580000  0.26900000  0.44680000  1.0 -0.0666665555
C  C42  1  0.73100000  0.55680000  0.44680000  1.0 -0.0666665555
C  C43  1  0.17420000  0.44320000  0.44680000  1.0 -0.0666665555
C  C44  1  0.55680000  0.73100000  0.44680000  1.0 -0.0666665555
C  C45  1  0.26900000  0.82580000  0.44680000  1.0 -0.0666665555
C  C46  1  0.55680000  0.82580000  0.55320000  1.0 -0.0666665555
C  C47  1  0.17420000  0.73100000  0.55320000  1.0 -0.0666665555
C  C48  1  0.26900000  0.44320000  0.55320000  1.0 -0.0666665555
C  C49  1  0.71125000  0.42250000  0.50000000  1.0 0.1921976871
C  C50  1  0.57750000  0.28875000  0.50000000  1.0 0.1921976871
C  C51  1  0.71125000  0.28875000  0.50000000  1.0 0.1921976871
C  C52  1  0.28875000  0.57750000  0.50000000  1.0 0.1921976871
C  C53  1  0.42250000  0.71125000  0.50000000  1.0 0.1921976871
C  C54  1  0.28875000  0.71125000  0.50000000  1.0 0.1921976871
C  C55  1  0.70210000  0.91860000  0.17630000  1.0 -0.1038077879
C  C56  1  0.08140000  0.78350000  0.17630000  1.0 -0.1038077879
C  C57  1  0.21650000  0.29790000  0.17630000  1.0 -0.1038077879
C  C58  1  0.08140000  0.29790000  0.82370000  1.0 -0.1038077879
C  C59  1  0.70210000  0.78350000  0.82370000  1.0 -0.1038077879
C  C60  1  0.21650000  0.91860000  0.82370000  1.0 -0.1038077879
C  C61  1  0.29790000  0.08140000  0.82370000  1.0 -0.1038077879
C  C62  1  0.91860000  0.21650000  0.82370000  1.0 -0.1038077879
C  C63  1  0.78350000  0.70210000  0.82370000  1.0 -0.1038077879
C  C64  1  0.91860000  0.70210000  0.17630000  1.0 -0.1038077879
C  C65  1  0.29790000  0.21650000  0.17630000  1.0 -0.1038077879
C  C66  1  0.78350000  0.08140000  0.17630000  1.0 -0.1038077879
C  C67  1  0.78310000  0.46910000  0.55740000  1.0 -0.1990911894
C  C68  1  0.53090000  0.31400000  0.55740000  1.0 -0.1990911894
C  C69  1  0.68600000  0.21690000  0.55740000  1.0 -0.1990911894
C  C70  1  0.53090000  0.21690000  0.44260000  1.0 -0.1990911894
C  C71  1  0.78310000  0.31400000  0.44260000  1.0 -0.1990911894
C  C72  1  0.68600000  0.46910000  0.44260000  1.0 -0.1990911894
C  C73  1  0.21690000  0.53090000  0.44260000  1.0 -0.1990911894
C  C74  1  0.46910000  0.68600000  0.44260000  1.0 -0.1990911894
C  C75  1  0.31400000  0.78310000  0.44260000  1.0 -0.1990911894
C  C76  1  0.46910000  0.78310000  0.55740000  1.0 -0.1990911894
C  C77  1  0.21690000  0.68600000  0.55740000  1.0 -0.1990911894
C  C78  1  0.31400000  0.53090000  0.55740000  1.0 -0.1990911894
C  C79  1  0.77350000  0.00000000  0.19800000  1.0 0.0084846992
C  C80  1  0.00000000  0.77350000  0.19800000  1.0 0.0084846992
C  C81  1  0.22650000  0.22650000  0.19800000  1.0 0.0084846992
C  C82  1  0.00000000  0.22650000  0.80200000  1.0 0.0084846992
C  C83  1  0.77350000  0.77350000  0.80200000  1.0 0.0084846992
C  C84  1  0.22650000  0.00000000  0.80200000  1.0 0.0084846992
C  C85  1  0.50280000  0.93490000  0.02130000  1.0 0.2639104666
C  C86  1  0.06510000  0.56790000  0.02130000  1.0 0.2639104666
C  C87  1  0.43210000  0.49720000  0.02130000  1.0 0.2639104666
C  C88  1  0.06510000  0.49720000  0.97870000  1.0 0.2639104666
C  C89  1  0.50280000  0.56790000  0.97870000  1.0 0.2639104666
C  C90  1  0.43210000  0.93490000  0.97870000  1.0 0.2639104666
C  C91  1  0.49720000  0.06510000  0.97870000  1.0 0.2639104666
C  C92  1  0.93490000  0.43210000  0.97870000  1.0 0.2639104666
C  C93  1  0.56790000  0.50280000  0.97870000  1.0 0.2639104666
C  C94  1  0.93490000  0.50280000  0.02130000  1.0 0.2639104666
C  C95  1  0.49720000  0.43210000  0.02130000  1.0 0.2639104666
C  C96  1  0.56790000  0.06510000  0.02130000  1.0 0.2639104666
N  N1  1  0.66666667  0.33333333  0.50000000  1.0 -0.1374192246
N  N2  1  0.33333333  0.66666667  0.50000000  1.0 -0.1374192246
N  N3  1  0.57640000  0.00000000  0.04600000  1.0 -0.1163990642
N  N4  1  0.00000000  0.57640000  0.04600000  1.0 -0.1163990642
N  N5  1  0.42360000  0.42360000  0.04600000  1.0 -0.1163990642
N  N6  1  0.00000000  0.42360000  0.95400000  1.0 -0.1163990642
N  N7  1  0.57640000  0.57640000  0.95400000  1.0 -0.1163990642
N  N8  1  0.42360000  0.00000000  0.95400000  1.0 -0.1163990642
O  O1  1  0.82990000  0.92720000  0.27800000  1.0 -0.6229812312
O  O2  1  0.07280000  0.90270000  0.27800000  1.0 -0.6229812312
O  O3  1  0.09730000  0.17010000  0.27800000  1.0 -0.6229812312
O  O4  1  0.07280000  0.17010000  0.72200000  1.0 -0.6229812312
O  O5  1  0.82990000  0.90270000  0.72200000  1.0 -0.6229812312
O  O6  1  0.09730000  0.92720000  0.72200000  1.0 -0.6229812312
O  O7  1  0.17010000  0.07280000  0.72200000  1.0 -0.6229812312
O  O8  1  0.92720000  0.09730000  0.72200000  1.0 -0.6229812312
O  O9  1  0.90270000  0.82990000  0.72200000  1.0 -0.6229812312
O  O10  1  0.92720000  0.82990000  0.27800000  1.0 -0.6229812312
O  O11  1  0.17010000  0.09730000  0.27800000  1.0 -0.6229812312
O  O12  1  0.90270000  0.07280000  0.27800000  1.0 -0.6229812312
O  O13  1  0.83150000  0.73380000  0.43940000  1.0 -0.6229812312
O  O14  1  0.26620000  0.09770000  0.43940000  1.0 -0.6229812312
O  O15  1  0.90230000  0.16850000  0.43940000  1.0 -0.6229812312
O  O16  1  0.26620000  0.16850000  0.56060000  1.0 -0.6229812312
O  O17  1  0.83150000  0.09770000  0.56060000  1.0 -0.6229812312
O  O18  1  0.90230000  0.73380000  0.56060000  1.0 -0.6229812312
O  O19  1  0.16850000  0.26620000  0.56060000  1.0 -0.6229812312
O  O20  1  0.73380000  0.90230000  0.56060000  1.0 -0.6229812312
O  O21  1  0.09770000  0.83150000  0.56060000  1.0 -0.6229812312
O  O22  1  0.73380000  0.83150000  0.43940000  1.0 -0.6229812312
O  O23  1  0.16850000  0.90230000  0.43940000  1.0 -0.6229812312
O  O24  1  0.09770000  0.26620000  0.43940000  1.0 -0.6229812312
O  O25  1  0.49880000  0.86590000  0.04000000  1.0 -0.3169408622
O  O26  1  0.13410000  0.63290000  0.04000000  1.0 -0.3169408622
O  O27  1  0.36710000  0.50120000  0.04000000  1.0 -0.3169408622
O  O28  1  0.13410000  0.50120000  0.96000000  1.0 -0.3169408622
O  O29  1  0.49880000  0.63290000  0.96000000  1.0 -0.3169408622
O  O30  1  0.36710000  0.86590000  0.96000000  1.0 -0.3169408622
O  O31  1  0.50120000  0.13410000  0.96000000  1.0 -0.3169408622
O  O32  1  0.86590000  0.36710000  0.96000000  1.0 -0.3169408622
O  O33  1  0.63290000  0.49880000  0.96000000  1.0 -0.3169408622
O  O34  1  0.86590000  0.49880000  0.04000000  1.0 -0.3169408622
O  O35  1  0.50120000  0.36710000  0.04000000  1.0 -0.3169408622
O  O36  1  0.63290000  0.13410000  0.04000000  1.0 -0.3169408622
F  F1  1  0.88530000  0.88530000  0.54870000  1.0 -0.8006298177
F  F2  1  0.11470000  0.00000000  0.54870000  1.0 -0.8006298177
F  F3  1  0.00000000  0.11470000  0.54870000  1.0 -0.8006298177
F  F4  1  0.11470000  0.11470000  0.45130000  1.0 -0.8006298177
F  F5  1  0.88530000  0.00000000  0.45130000  1.0 -0.8006298177
F  F6  1  0.00000000  0.88530000  0.45130000  1.0 -0.7890767289
F  F7  1  0.00000000  0.00000000  0.35100000  1.0 -0.7890767289
F  F8  1  0.00000000  0.00000000  0.64900000  1.0 -0.7890767289
