# DDEC6 charges by PACMAN v1.1 (https://github.com/mtap-research/PACMAN-charge/)
data_WICSAG_ASR_pacman
_symmetry_space_group_name_H-M   'P 1'
_cell_length_a   18.04090000
_cell_length_b   18.04090000
_cell_length_c   17.68700000
_cell_angle_alpha   79.33450000
_cell_angle_beta   100.66600000
_cell_angle_gamma   59.91600000
_symmetry_Int_Tables_number   1
_chemical_formula_structural   Tb3H24C42N2(O3F)4
_chemical_formula_sum   'Tb6 H48 C84 N4 O24 F8'
_cell_volume   4626.43311201
_cell_formula_units_Z   2
loop_
 _symmetry_equiv_pos_site_id
 _symmetry_equiv_pos_as_xyz
  1  'x, y, z'
loop_
 _atom_site_type_symbol
 _atom_site_label
 _atom_site_symmetry_multiplicity
 _atom_site_fract_x
 _atom_site_fract_y
 _atom_site_fract_z
 _atom_site_occupancy
 _atom_site_charge
Tb  Tb1  1  0.09205000  0.90795000  0.90409000  1.0 2.1948018093
Tb  Tb2  1  0.90795000  0.09205000  0.09591000  1.0 2.1948018093
Tb  Tb3  1  0.84007000  0.03375000  0.90249000  1.0 2.1762374063
Tb  Tb4  1  0.03375000  0.84007000  0.09751000  1.0 2.1762374063
Tb  Tb5  1  0.15993000  0.96625000  0.09751000  1.0 2.1762374063
Tb  Tb6  1  0.96625000  0.15993000  0.90249000  1.0 2.1762374063
H  H1  1  0.38208000  0.74322000  0.91761000  1.0 0.1332199015
H  H2  1  0.74322000  0.38208000  0.08239000  1.0 0.1332199015
H  H3  1  0.61792000  0.25678000  0.08239000  1.0 0.1332199015
H  H4  1  0.25678000  0.61792000  0.91761000  1.0 0.1332199015
H  H5  1  0.44454000  0.84652000  0.08378000  1.0 0.1332199015
H  H6  1  0.84652000  0.44454000  0.91622000  1.0 0.1332199015
H  H7  1  0.55546000  0.15348000  0.91622000  1.0 0.1332199015
H  H8  1  0.15348000  0.55546000  0.08378000  1.0 0.1332199015
H  H9  1  0.76818000  0.93780000  0.70188000  1.0 0.1332199015
H  H10  1  0.93780000  0.76818000  0.29812000  1.0 0.1332199015
H  H11  1  0.23182000  0.06220000  0.29812000  1.0 0.1332199015
H  H12  1  0.06220000  0.23182000  0.70188000  1.0 0.1332199015
H  H13  1  0.01553000  0.84151000  0.67837000  1.0 0.1332199015
H  H14  1  0.84151000  0.01553000  0.32163000  1.0 0.1332199015
H  H15  1  0.98447000  0.15849000  0.32163000  1.0 0.1332199015
H  H16  1  0.15849000  0.98447000  0.67837000  1.0 0.1332199015
H  H17  1  0.53089000  0.66849000  0.91640000  1.0 0.1332199015
H  H18  1  0.66849000  0.53089000  0.08360000  1.0 0.1332199015
H  H19  1  0.46911000  0.33151000  0.08360000  1.0 0.1332199015
H  H20  1  0.33151000  0.46911000  0.91640000  1.0 0.1332199015
H  H21  1  0.59334000  0.77180000  0.08257000  1.0 0.1332199015
H  H22  1  0.77180000  0.59334000  0.91743000  1.0 0.1332199015
H  H23  1  0.40666000  0.22820000  0.91743000  1.0 0.1332199015
H  H24  1  0.22820000  0.40666000  0.08257000  1.0 0.1332199015
H  H25  1  0.72713000  0.89637000  0.59221000  1.0 0.1370566593
H  H26  1  0.89637000  0.72713000  0.40779000  1.0 0.1370566593
H  H27  1  0.27287000  0.10363000  0.40779000  1.0 0.1370566593
H  H28  1  0.10363000  0.27287000  0.59221000  1.0 0.1370566593
H  H29  1  0.97448000  0.80008000  0.56870000  1.0 0.1332199015
H  H30  1  0.80008000  0.97448000  0.43130000  1.0 0.1332199015
H  H31  1  0.02552000  0.19992000  0.43130000  1.0 0.1332199015
H  H32  1  0.19992000  0.02552000  0.56870000  1.0 0.1332199015
H  H33  1  0.83083000  0.60953000  0.08677000  1.0 0.1332199015
H  H34  1  0.60953000  0.83083000  0.91323000  1.0 0.1332199015
H  H35  1  0.16917000  0.39047000  0.91323000  1.0 0.1332199015
H  H36  1  0.39047000  0.16917000  0.08677000  1.0 0.1332199015
H  H37  1  0.67698000  0.86692000  0.39085000  1.0 0.1370566593
H  H38  1  0.86692000  0.67698000  0.60915000  1.0 0.1370566593
H  H39  1  0.32302000  0.13308000  0.60915000  1.0 0.1370566593
H  H40  1  0.13308000  0.32302000  0.39085000  1.0 0.1370566593
H  H41  1  0.90359000  0.68663000  0.08359000  1.0 0.1370566593
H  H42  1  0.68663000  0.90359000  0.91641000  1.0 0.1370566593
H  H43  1  0.09641000  0.31337000  0.91641000  1.0 0.1370566593
H  H44  1  0.31337000  0.09641000  0.08359000  1.0 0.1370566593
H  H45  1  0.65129000  0.74975000  0.37514000  1.0 0.1239794139
H  H46  1  0.74975000  0.65129000  0.62486000  1.0 0.1239794139
H  H47  1  0.34871000  0.25025000  0.62486000  1.0 0.1239794139
H  H48  1  0.25025000  0.34871000  0.37514000  1.0 0.1239794139
C  C1  1  0.30430000  0.84950000  0.00390000  1.0 0.6507848401
C  C2  1  0.84950000  0.30430000  0.99610000  1.0 0.6507848401
C  C3  1  0.69570000  0.15050000  0.99610000  1.0 0.6507848401
C  C4  1  0.15050000  0.69570000  0.00390000  1.0 0.6507848401
C  C5  1  0.91930000  0.92450000  0.77120000  1.0 0.6507848401
C  C6  1  0.92450000  0.91930000  0.22880000  1.0 0.6507848401
C  C7  1  0.08070000  0.07550000  0.22880000  1.0 0.6507848401
C  C8  1  0.07550000  0.08070000  0.77120000  1.0 0.6507848401
C  C9  1  0.39890000  0.80210000  0.00080000  1.0 -0.050987244
C  C10  1  0.80210000  0.39890000  0.99920000  1.0 -0.050987244
C  C11  1  0.60110000  0.19790000  0.99920000  1.0 -0.050987244
C  C12  1  0.19790000  0.60110000  0.00080000  1.0 -0.050987244
C  C13  1  0.89580000  0.89360000  0.70070000  1.0 -0.0379528235
C  C14  1  0.89360000  0.89580000  0.29930000  1.0 -0.0379528235
C  C15  1  0.10420000  0.10640000  0.29930000  1.0 -0.0379528235
C  C16  1  0.10640000  0.10420000  0.70070000  1.0 -0.0379528235
C  C17  1  0.42470000  0.74890000  0.95090000  1.0 -0.0775685361
C  C18  1  0.74890000  0.42470000  0.04910000  1.0 -0.0775685361
C  C19  1  0.57530000  0.25110000  0.04910000  1.0 -0.0775685361
C  C20  1  0.25110000  0.57530000  0.95090000  1.0 -0.0775685361
C  C21  1  0.46200000  0.81060000  0.05000000  1.0 -0.0747342836
C  C22  1  0.81060000  0.46200000  0.95000000  1.0 -0.0747342836
C  C23  1  0.53800000  0.18940000  0.95000000  1.0 -0.0747342836
C  C24  1  0.18940000  0.53800000  0.05000000  1.0 -0.0747342836
C  C25  1  0.80980000  0.91000000  0.67500000  1.0 -0.0775685361
C  C26  1  0.91000000  0.80980000  0.32500000  1.0 -0.0775685361
C  C27  1  0.19020000  0.09000000  0.32500000  1.0 -0.0775685361
C  C28  1  0.09000000  0.19020000  0.67500000  1.0 -0.0775685361
C  C29  1  0.95740000  0.85260000  0.66100000  1.0 -0.0775685361
C  C30  1  0.85260000  0.95740000  0.33900000  1.0 -0.0775685361
C  C31  1  0.04260000  0.14740000  0.33900000  1.0 -0.0775685361
C  C32  1  0.14740000  0.04260000  0.66100000  1.0 -0.0775685361
C  C33  1  0.51340000  0.70440000  0.95020000  1.0 -0.1931253678
C  C34  1  0.70440000  0.51340000  0.04980000  1.0 -0.1931253678
C  C35  1  0.48660000  0.29560000  0.04980000  1.0 -0.1931253678
C  C36  1  0.29560000  0.48660000  0.95020000  1.0 -0.1931253678
C  C37  1  0.55070000  0.76610000  0.04930000  1.0 -0.1978799459
C  C38  1  0.76610000  0.55070000  0.95070000  1.0 -0.1978799459
C  C39  1  0.44930000  0.23390000  0.95070000  1.0 -0.1978799459
C  C40  1  0.23390000  0.44930000  0.04930000  1.0 -0.1978799459
C  C41  1  0.78530000  0.88530000  0.60960000  1.0 -0.1931253678
C  C42  1  0.88530000  0.78530000  0.39040000  1.0 -0.1931253678
C  C43  1  0.21470000  0.11470000  0.39040000  1.0 -0.1931253678
C  C44  1  0.11470000  0.21470000  0.60960000  1.0 -0.1931253678
C  C45  1  0.93290000  0.82790000  0.59560000  1.0 -0.1931253678
C  C46  1  0.82790000  0.93290000  0.40440000  1.0 -0.1931253678
C  C47  1  0.06710000  0.17210000  0.40440000  1.0 -0.1931253678
C  C48  1  0.17210000  0.06710000  0.59560000  1.0 -0.1931253678
C  C49  1  0.57650000  0.71290000  0.99940000  1.0 0.1786024553
C  C50  1  0.71290000  0.57650000  0.00060000  1.0 0.1786024553
C  C51  1  0.42350000  0.28710000  0.00060000  1.0 0.1786024553
C  C52  1  0.28710000  0.42350000  0.99940000  1.0 0.1786024553
C  C53  1  0.84680000  0.84420000  0.56990000  1.0 0.159768628
C  C54  1  0.84420000  0.84680000  0.43010000  1.0 0.159768628
C  C55  1  0.15320000  0.15580000  0.43010000  1.0 0.159768628
C  C56  1  0.15580000  0.15320000  0.56990000  1.0 0.159768628
C  C57  1  0.71090000  0.71090000  0.00000000  1.0 0.2029101272
C  C58  1  0.28910000  0.28910000  0.00000000  1.0 0.2029101272
C  C59  1  0.78190000  0.78190000  0.50000000  1.0 0.2542465944
C  C60  1  0.21810000  0.21810000  0.50000000  1.0 0.2542465944
C  C61  1  0.79990000  0.66910000  0.05110000  1.0 -0.1978799459
C  C62  1  0.66910000  0.79990000  0.94890000  1.0 -0.1978799459
C  C63  1  0.20010000  0.33090000  0.94890000  1.0 -0.1978799459
C  C64  1  0.33090000  0.20010000  0.05110000  1.0 -0.1978799459
C  C65  1  0.70670000  0.81030000  0.43140000  1.0 -0.2454903106
C  C66  1  0.81030000  0.70670000  0.56860000  1.0 -0.2454903106
C  C67  1  0.29330000  0.18970000  0.56860000  1.0 -0.2454903106
C  C68  1  0.18970000  0.29330000  0.43140000  1.0 -0.2454903106
C  C69  1  0.84350000  0.71590000  0.04940000  1.0 -0.0775685361
C  C70  1  0.71590000  0.84350000  0.95060000  1.0 -0.0775685361
C  C71  1  0.15650000  0.28410000  0.95060000  1.0 -0.0775685361
C  C72  1  0.28410000  0.15650000  0.04940000  1.0 -0.0775685361
C  C73  1  0.67790000  0.75010000  0.42596000  1.0 -0.050987244
C  C74  1  0.75010000  0.67790000  0.57404000  1.0 -0.050987244
C  C75  1  0.32210000  0.24990000  0.57404000  1.0 -0.050987244
C  C76  1  0.24990000  0.32210000  0.42596000  1.0 -0.050987244
C  C77  1  0.80090000  0.80090000  0.00000000  1.0 -0.0379528235
C  C78  1  0.19910000  0.19910000  0.00000000  1.0 -0.0379528235
C  C79  1  0.69050000  0.69050000  0.50000000  1.0 -0.050987244
C  C80  1  0.30950000  0.30950000  0.50000000  1.0 -0.050987244
C  C81  1  0.84920000  0.84920000  0.00000000  1.0 0.6507848401
C  C82  1  0.15080000  0.15080000  0.00000000  1.0 0.6507848401
C  C83  1  0.64470000  0.64470000  0.50000000  1.0 0.5727284868
C  C84  1  0.35530000  0.35530000  0.50000000  1.0 0.5727284868
N  N1  1  0.66760000  0.66760000  0.00000000  1.0 -0.1554669197
N  N2  1  0.33240000  0.33240000  0.00000000  1.0 -0.1554669197
N  N3  1  0.82090000  0.82090000  0.50000000  1.0 -0.1318125706
N  N4  1  0.17910000  0.17910000  0.50000000  1.0 -0.1318125706
O  O1  1  0.24490000  0.84990000  0.94660000  1.0 -0.6788533907
O  O2  1  0.84990000  0.24490000  0.05340000  1.0 -0.6788533907
O  O3  1  0.75510000  0.15010000  0.05340000  1.0 -0.6788533907
O  O4  1  0.15010000  0.75510000  0.94660000  1.0 -0.6788533907
O  O5  1  0.00120000  0.90160000  0.79840000  1.0 -0.6421876531
O  O6  1  0.90160000  0.00120000  0.20160000  1.0 -0.6421876531
O  O7  1  0.99880000  0.09840000  0.20160000  1.0 -0.6421876531
O  O8  1  0.09840000  0.99880000  0.79840000  1.0 -0.6421876531
O  O9  1  0.28630000  0.88490000  0.05670000  1.0 -0.6049494128
O  O10  1  0.88490000  0.28630000  0.94330000  1.0 -0.6049494128
O  O11  1  0.71370000  0.11510000  0.94330000  1.0 -0.6049494128
O  O12  1  0.11510000  0.71370000  0.05670000  1.0 -0.6049494128
O  O13  1  0.85650000  0.96950000  0.79740000  1.0 -0.6263327579
O  O14  1  0.96950000  0.85650000  0.20260000  1.0 -0.6263327579
O  O15  1  0.14350000  0.03050000  0.20260000  1.0 -0.6263327579
O  O16  1  0.03050000  0.14350000  0.79740000  1.0 -0.6263327579
O  O17  1  0.81080000  0.92360000  0.94280000  1.0 -0.6263327579
O  O18  1  0.92360000  0.81080000  0.05720000  1.0 -0.6263327579
O  O19  1  0.18920000  0.07640000  0.05720000  1.0 -0.6263327579
O  O20  1  0.07640000  0.18920000  0.94280000  1.0 -0.6263327579
O  O21  1  0.54180000  0.71780000  0.42200000  1.0 -0.5627535265
O  O22  1  0.71780000  0.54180000  0.57800000  1.0 -0.5627535265
O  O23  1  0.45820000  0.28220000  0.57800000  1.0 -0.5627535265
O  O24  1  0.28220000  0.45820000  0.42200000  1.0 -0.5627535265
F  F1  1  0.98343000  0.90603000  0.95340000  1.0 -0.8376215181
F  F2  1  0.90603000  0.98343000  0.04660000  1.0 -0.8376215181
F  F3  1  0.01657000  0.09397000  0.04660000  1.0 -0.8376215181
F  F4  1  0.09397000  0.01657000  0.95340000  1.0 -0.8376215181
F  F5  1  0.94730000  0.05270000  0.86150000  1.0 -0.8376215181
F  F6  1  0.05270000  0.94730000  0.13850000  1.0 -0.8376215181
F  F7  1  0.13710000  0.86290000  0.05310000  1.0 -0.8466182034
F  F8  1  0.86290000  0.13710000  0.94690000  1.0 -0.8466182034
