# DDEC6 charges by PACMAN v1.1 (https://github.com/mtap-research/PACMAN-charge/)
data_WIDTAF_FSR_pacman
_symmetry_space_group_name_H-M   'P 1'
_cell_length_a   12.59050000
_cell_length_b   12.59050000
_cell_length_c   12.80300000
_cell_angle_alpha   82.54170000
_cell_angle_beta   97.45830000
_cell_angle_gamma   96.49710000
_symmetry_Int_Tables_number   1
_chemical_formula_structural   ZnH15C23N2O7
_chemical_formula_sum   'Zn4 H60 C92 N8 O28'
_cell_volume   1985.74845339
_cell_formula_units_Z   4
loop_
 _symmetry_equiv_pos_site_id
 _symmetry_equiv_pos_as_xyz
  1  'x, y, z'
loop_
 _atom_site_type_symbol
 _atom_site_label
 _atom_site_symmetry_multiplicity
 _atom_site_fract_x
 _atom_site_fract_y
 _atom_site_fract_z
 _atom_site_occupancy
 _atom_site_charge
Zn  Zn1  1  0.65900000  0.23770000  0.33223000  1.0 0.6467258622
Zn  Zn2  1  0.23770000  0.65900000  0.16777000  1.0 0.6467258622
Zn  Zn3  1  0.34100000  0.76230000  0.66777000  1.0 0.6467258622
Zn  Zn4  1  0.76230000  0.34100000  0.83223000  1.0 0.6467258622
H  H1  1  0.86230000  0.18030000  0.27570000  1.0 0.1103263512
H  H2  1  0.18030000  0.86230000  0.22430000  1.0 0.1103263512
H  H3  1  0.13770000  0.81970000  0.72430000  1.0 0.1103263512
H  H4  1  0.81970000  0.13770000  0.77570000  1.0 0.1103263512
H  H5  1  0.00080000  0.08220000  0.33400000  1.0 0.1238870909
H  H6  1  0.08220000  0.00080000  0.16600000  1.0 0.1238870909
H  H7  1  0.99920000  0.91780000  0.66600000  1.0 0.1238870909
H  H8  1  0.91780000  0.99920000  0.83400000  1.0 0.1238870909
H  H9  1  0.87600000  0.01340000  0.60710000  1.0 0.1319314679
H  H10  1  0.01340000  0.87600000  0.89290000  1.0 0.1319314679
H  H11  1  0.12400000  0.98660000  0.39290000  1.0 0.1319314679
H  H12  1  0.98660000  0.12400000  0.10710000  1.0 0.1319314679
H  H13  1  0.74200000  0.11780000  0.53810000  1.0 0.1007709754
H  H14  1  0.11780000  0.74200000  0.96190000  1.0 0.1007709754
H  H15  1  0.25800000  0.88220000  0.46190000  1.0 0.1007709754
H  H16  1  0.88220000  0.25800000  0.03810000  1.0 0.1007709754
H  H17  1  0.58860000  0.28420000  0.10240000  1.0 0.1007709754
H  H18  1  0.28420000  0.58860000  0.39760000  1.0 0.1007709754
H  H19  1  0.41140000  0.71580000  0.89760000  1.0 0.1007709754
H  H20  1  0.71580000  0.41140000  0.60240000  1.0 0.1007709754
H  H21  1  0.52770000  0.18730000  0.96020000  1.0 0.1103263512
H  H22  1  0.18730000  0.52770000  0.53980000  1.0 0.1103263512
H  H23  1  0.47230000  0.81270000  0.03980000  1.0 0.1103263512
H  H24  1  0.81270000  0.47230000  0.46020000  1.0 0.1103263512
H  H25  1  0.53490000  0.91570000  0.15990000  1.0 0.0703885341
H  H26  1  0.91570000  0.53490000  0.34010000  1.0 0.0703885341
H  H27  1  0.46510000  0.08430000  0.84010000  1.0 0.0703885341
H  H28  1  0.08430000  0.46510000  0.65990000  1.0 0.0703885341
H  H29  1  0.61650000  0.02330000  0.28680000  1.0 0.0703885341
H  H30  1  0.02330000  0.61650000  0.21320000  1.0 0.0703885341
H  H31  1  0.38350000  0.97670000  0.71320000  1.0 0.0703885341
H  H32  1  0.97670000  0.38350000  0.78680000  1.0 0.0703885341
H  H33  1  0.19930000  0.14870000  0.56250000  1.0 0.1103263512
H  H34  1  0.14870000  0.19930000  0.93750000  1.0 0.1103263512
H  H35  1  0.80070000  0.85130000  0.43750000  1.0 0.1103263512
H  H36  1  0.85130000  0.80070000  0.06250000  1.0 0.1103263512
H  H37  1  0.33170000  0.15070000  0.45380000  1.0 0.1103263512
H  H38  1  0.15070000  0.33170000  0.04620000  1.0 0.1103263512
H  H39  1  0.66830000  0.84930000  0.54620000  1.0 0.1103263512
H  H40  1  0.84930000  0.66830000  0.95380000  1.0 0.1103263512
H  H41  1  0.41170000  0.26530000  0.78130000  1.0 0.1103263512
H  H42  1  0.26530000  0.41170000  0.71870000  1.0 0.1103263512
H  H43  1  0.58830000  0.73470000  0.21870000  1.0 0.1103263512
H  H44  1  0.73470000  0.58830000  0.28130000  1.0 0.1103263512
H  H45  1  0.69380000  0.21560000  0.10260000  1.0 0.1007709754
H  H46  1  0.21560000  0.69380000  0.39740000  1.0 0.1007709754
H  H47  1  0.30620000  0.78440000  0.89740000  1.0 0.1007709754
H  H48  1  0.78440000  0.30620000  0.60260000  1.0 0.1007709754
H  H49  1  0.65100000  0.09820000  0.97710000  1.0 0.1103263512
H  H50  1  0.09820000  0.65100000  0.52290000  1.0 0.1103263512
H  H51  1  0.34900000  0.90180000  0.02290000  1.0 0.1103263512
H  H52  1  0.90180000  0.34900000  0.47710000  1.0 0.1103263512
H  H53  1  0.43570000  0.93770000  0.15340000  1.0 0.0817892393
H  H54  1  0.93770000  0.43570000  0.34660000  1.0 0.0817892393
H  H55  1  0.56430000  0.06230000  0.84660000  1.0 0.0817892393
H  H56  1  0.06230000  0.56430000  0.65340000  1.0 0.0817892393
H  H57  1  0.51510000  0.04470000  0.29050000  1.0 0.0817892393
H  H58  1  0.04470000  0.51510000  0.20950000  1.0 0.0817892393
H  H59  1  0.48490000  0.95530000  0.70950000  1.0 0.0817892393
H  H60  1  0.95530000  0.48490000  0.79050000  1.0 0.0817892393
C  C1  1  0.86560000  0.14580000  0.34460000  1.0 0.0285048461
C  C2  1  0.14580000  0.86560000  0.15540000  1.0 0.0285048461
C  C3  1  0.13440000  0.85420000  0.65540000  1.0 0.0285048461
C  C4  1  0.85420000  0.13440000  0.84460000  1.0 0.0285048461
C  C5  1  0.94920000  0.08680000  0.37860000  1.0 -0.2016066174
C  C6  1  0.08680000  0.94920000  0.12140000  1.0 -0.2016066174
C  C7  1  0.05080000  0.91320000  0.62140000  1.0 -0.2016066174
C  C8  1  0.91320000  0.05080000  0.87860000  1.0 -0.2016066174
C  C9  1  0.95730000  0.03310000  0.48020000  1.0 0.1007709754
C  C10  1  0.03310000  0.95730000  0.01980000  1.0 0.1007709754
C  C11  1  0.04270000  0.96690000  0.51980000  1.0 0.1007709754
C  C12  1  0.96690000  0.04270000  0.98020000  1.0 0.1007709754
C  C13  1  0.87600000  0.04720000  0.53810000  1.0 -0.2136093537
C  C14  1  0.04720000  0.87600000  0.96190000  1.0 -0.2136093537
C  C15  1  0.12400000  0.95280000  0.46190000  1.0 -0.2136093537
C  C16  1  0.95280000  0.12400000  0.03810000  1.0 -0.2136093537
C  C17  1  0.79510000  0.10970000  0.49620000  1.0 0.0061628026
C  C18  1  0.10970000  0.79510000  0.00380000  1.0 0.0061628026
C  C19  1  0.20490000  0.89030000  0.50380000  1.0 0.0061628026
C  C20  1  0.89030000  0.20490000  0.99620000  1.0 0.0061628026
C  C21  1  0.52130000  0.03590000  0.04490000  1.0 0.0285048461
C  C22  1  0.03590000  0.52130000  0.45510000  1.0 0.0285048461
C  C23  1  0.47870000  0.96410000  0.95510000  1.0 0.0285048461
C  C24  1  0.96410000  0.47870000  0.54490000  1.0 0.0285048461
C  C25  1  0.57870000  0.20930000  0.11170000  1.0 -0.0508322605
C  C26  1  0.20930000  0.57870000  0.38830000  1.0 -0.0508322605
C  C27  1  0.42130000  0.79070000  0.88830000  1.0 -0.0508322605
C  C28  1  0.79070000  0.42130000  0.61170000  1.0 -0.0508322605
C  C29  1  0.54090000  0.15150000  0.02810000  1.0 -0.0508322605
C  C30  1  0.15150000  0.54090000  0.47190000  1.0 -0.0508322605
C  C31  1  0.45910000  0.84850000  0.97190000  1.0 -0.0508322605
C  C32  1  0.84850000  0.45910000  0.52810000  1.0 -0.0508322605
C  C33  1  0.54660000  0.98980000  0.14300000  1.0 -0.061913264
C  C34  1  0.98980000  0.54660000  0.35700000  1.0 -0.061913264
C  C35  1  0.45340000  0.01020000  0.85700000  1.0 -0.061913264
C  C36  1  0.01020000  0.45340000  0.64300000  1.0 -0.061913264
C  C37  1  0.59180000  0.05680000  0.22050000  1.0 0.0285048461
C  C38  1  0.05680000  0.59180000  0.27950000  1.0 0.0285048461
C  C39  1  0.40820000  0.94320000  0.77950000  1.0 0.0285048461
C  C40  1  0.94320000  0.40820000  0.72050000  1.0 0.0285048461
C  C41  1  0.26940000  0.17460000  0.58530000  1.0 -0.2016066174
C  C42  1  0.17460000  0.26940000  0.91470000  1.0 -0.2016066174
C  C43  1  0.73060000  0.82540000  0.41470000  1.0 -0.2016066174
C  C44  1  0.82540000  0.73060000  0.08530000  1.0 -0.2016066174
C  C45  1  0.34970000  0.17390000  0.52040000  1.0 -0.1093487563
C  C46  1  0.17390000  0.34970000  0.97960000  1.0 -0.1093487563
C  C47  1  0.65030000  0.82610000  0.47960000  1.0 -0.1093487563
C  C48  1  0.82610000  0.65030000  0.02040000  1.0 -0.1093487563
C  C49  1  0.45290000  0.20610000  0.55240000  1.0 -0.0980865006
C  C50  1  0.20610000  0.45290000  0.94760000  1.0 -0.0980865006
C  C51  1  0.54710000  0.79390000  0.44760000  1.0 -0.0980865006
C  C52  1  0.79390000  0.54710000  0.05240000  1.0 -0.0980865006
C  C53  1  0.47770000  0.23510000  0.65530000  1.0 -0.0508322605
C  C54  1  0.23510000  0.47770000  0.84470000  1.0 -0.0508322605
C  C55  1  0.52230000  0.76490000  0.34470000  1.0 -0.0508322605
C  C56  1  0.76490000  0.52230000  0.15530000  1.0 -0.0508322605
C  C57  1  0.39550000  0.24090000  0.71500000  1.0 -0.2325826856
C  C58  1  0.24090000  0.39550000  0.78500000  1.0 -0.2325826856
C  C59  1  0.60450000  0.75910000  0.28500000  1.0 -0.2325826856
C  C60  1  0.75910000  0.60450000  0.21500000  1.0 -0.2325826856
C  C61  1  0.29070000  0.21130000  0.67890000  1.0 -0.0002998663
C  C62  1  0.21130000  0.29070000  0.82110000  1.0 -0.0002998663
C  C63  1  0.70930000  0.78870000  0.32110000  1.0 -0.0002998663
C  C64  1  0.78870000  0.70930000  0.17890000  1.0 -0.0002998663
C  C65  1  0.22560000  0.19140000  0.77180000  1.0 0.1875571897
C  C66  1  0.19140000  0.22560000  0.72820000  1.0 0.1875571897
C  C67  1  0.77440000  0.80860000  0.22820000  1.0 0.1875571897
C  C68  1  0.80860000  0.77440000  0.27180000  1.0 0.1875571897
C  C69  1  0.53510000  0.20490000  0.47880000  1.0 0.3944112351
C  C70  1  0.20490000  0.53510000  0.02120000  1.0 0.395000725
C  C71  1  0.46490000  0.79510000  0.52120000  1.0 0.395000725
C  C72  1  0.79510000  0.46490000  0.97880000  1.0 0.3944112351
C  C73  1  0.75220000  0.41120000  0.20390000  1.0 0.4966730093
C  C74  1  0.41120000  0.75220000  0.29610000  1.0 0.4966730093
C  C75  1  0.24780000  0.58880000  0.79610000  1.0 0.4966730093
C  C76  1  0.58880000  0.24780000  0.70390000  1.0 0.4966730093
C  C77  1  0.64000000  0.16000000  0.11440000  1.0 0.0241131232
C  C78  1  0.16000000  0.64000000  0.38560000  1.0 0.0241131232
C  C79  1  0.36000000  0.84000000  0.88560000  1.0 0.0241131232
C  C80  1  0.84000000  0.36000000  0.61440000  1.0 0.0241131232
C  C81  1  0.61120000  0.09740000  0.03360000  1.0 -0.1237447868
C  C82  1  0.09740000  0.61120000  0.46640000  1.0 -0.1237447868
C  C83  1  0.38880000  0.90260000  0.96640000  1.0 -0.1237447868
C  C84  1  0.90260000  0.38880000  0.53360000  1.0 -0.1237447868
C  C85  1  0.48460000  0.99780000  0.14180000  1.0 -0.0706302757
C  C86  1  0.99780000  0.48460000  0.35820000  1.0 -0.0706302757
C  C87  1  0.51540000  0.00220000  0.85820000  1.0 -0.0706302757
C  C88  1  0.00220000  0.51540000  0.64180000  1.0 -0.0706302757
C  C89  1  0.53340000  0.06520000  0.22220000  1.0 0.0031689619
C  C90  1  0.06520000  0.53340000  0.27780000  1.0 0.0031689619
C  C91  1  0.46660000  0.93480000  0.77780000  1.0 0.0031689619
C  C92  1  0.93480000  0.46660000  0.72220000  1.0 0.0031689619
N  N1  1  0.78990000  0.15850000  0.39960000  1.0 -0.2847403596
N  N2  1  0.15850000  0.78990000  0.10040000  1.0 -0.2847403596
N  N3  1  0.21010000  0.84150000  0.60040000  1.0 -0.2847403596
N  N4  1  0.84150000  0.21010000  0.89960000  1.0 -0.2847403596
N  N5  1  0.60100000  0.15240000  0.20870000  1.0 -0.1385776466
N  N6  1  0.15240000  0.60100000  0.29130000  1.0 -0.1385776466
N  N7  1  0.39900000  0.84760000  0.79130000  1.0 -0.1385776466
N  N8  1  0.84760000  0.39900000  0.70870000  1.0 -0.1385776466
O  O1  1  0.53500000  0.17120000  0.39730000  1.0 -0.0980865006
O  O2  1  0.17120000  0.53500000  0.10270000  1.0 -0.0980865006
O  O3  1  0.46500000  0.82880000  0.60270000  1.0 -0.0980865006
O  O4  1  0.82880000  0.46500000  0.89730000  1.0 -0.0980865006
O  O5  1  0.61080000  0.27640000  0.48810000  1.0 -0.1385776466
O  O6  1  0.27640000  0.61080000  0.01190000  1.0 -0.1385776466
O  O7  1  0.38920000  0.72360000  0.51190000  1.0 -0.1385776466
O  O8  1  0.72360000  0.38920000  0.98810000  1.0 -0.1385776466
O  O9  1  0.80790000  0.34310000  0.18330000  1.0 -0.5228129039
O  O10  1  0.34310000  0.80790000  0.31670000  1.0 -0.5228129039
O  O11  1  0.19210000  0.65690000  0.81670000  1.0 -0.5228129039
O  O12  1  0.65690000  0.19210000  0.68330000  1.0 -0.5228129039
O  O13  1  0.68740000  0.38880000  0.26810000  1.0 -0.4772674153
O  O14  1  0.38880000  0.68740000  0.23190000  1.0 -0.4772674153
O  O15  1  0.31260000  0.61120000  0.73190000  1.0 -0.4772674153
O  O16  1  0.61120000  0.31260000  0.76810000  1.0 -0.4772674153
O  O17  1  0.16040000  0.10760000  0.78040000  1.0 -0.0823498676
O  O18  1  0.10760000  0.16040000  0.71960000  1.0 -0.0823498676
O  O19  1  0.83960000  0.89240000  0.21960000  1.0 -0.0823498676
O  O20  1  0.89240000  0.83960000  0.28040000  1.0 -0.0823498676
O  O21  1  0.52820000  0.11520000  0.44260000  1.0 -0.2900045822
O  O22  1  0.11520000  0.52820000  0.05740000  1.0 -0.2900045822
O  O23  1  0.47180000  0.88480000  0.55740000  1.0 -0.2900045822
O  O24  1  0.88480000  0.47180000  0.94260000  1.0 -0.2900045822
O  O25  1  0.58850000  0.28090000  0.44100000  1.0 0.0285048461
O  O26  1  0.28090000  0.58850000  0.05900000  1.0 0.0285048461
O  O27  1  0.41150000  0.71910000  0.55900000  1.0 0.0285048461
O  O28  1  0.71910000  0.41150000  0.94100000  1.0 0.0285048461
