# DDEC6 charges by PACMAN v1.1 (https://github.com/mtap-research/PACMAN-charge/)
data_WIDZUG_ASR_pacman
_symmetry_space_group_name_H-M   'P 1'
_cell_length_a   13.64790000
_cell_length_b   13.64790000
_cell_length_c   14.24840000
_cell_angle_alpha   77.83260000
_cell_angle_beta   102.16700000
_cell_angle_gamma   129.70900000
_symmetry_Int_Tables_number   1
_chemical_formula_structural   CdH12C14(NO)4
_chemical_formula_sum   'Cd4 H48 C56 N16 O16'
_cell_volume   1985.59391836
_cell_formula_units_Z   4
loop_
 _symmetry_equiv_pos_site_id
 _symmetry_equiv_pos_as_xyz
  1  'x, y, z'
loop_
 _atom_site_type_symbol
 _atom_site_label
 _atom_site_symmetry_multiplicity
 _atom_site_fract_x
 _atom_site_fract_y
 _atom_site_fract_z
 _atom_site_occupancy
 _atom_site_charge
Cd  Cd1  1  0.44486000  0.99890000  0.86425000  1.0 0.8422478809
Cd  Cd2  1  0.99890000  0.44486000  0.63575000  1.0 0.8422478809
Cd  Cd3  1  0.55514000  0.00110000  0.13575000  1.0 0.8422478809
Cd  Cd4  1  0.00110000  0.55514000  0.36425000  1.0 0.8422478809
H  H1  1  0.19380000  0.98340000  0.58600000  1.0 0.1192149929
H  H2  1  0.98340000  0.19380000  0.91400000  1.0 0.1192149929
H  H3  1  0.80620000  0.01660000  0.41400000  1.0 0.1192149929
H  H4  1  0.01660000  0.80620000  0.08600000  1.0 0.1192149929
H  H5  1  0.08810000  0.84850000  0.63490000  1.0 0.1192149929
H  H6  1  0.84850000  0.08810000  0.86510000  1.0 0.1192149929
H  H7  1  0.91190000  0.15150000  0.36510000  1.0 0.1192149929
H  H8  1  0.15150000  0.91190000  0.13490000  1.0 0.1192149929
H  H9  1  0.12920000  0.84140000  0.48440000  1.0 0.1292605623
H  H10  1  0.84140000  0.12920000  0.01560000  1.0 0.1292605623
H  H11  1  0.87080000  0.15860000  0.51560000  1.0 0.1292605623
H  H12  1  0.15860000  0.87080000  0.98440000  1.0 0.1292605623
H  H13  1  0.26660000  0.89040000  0.53000000  1.0 0.1480485061
H  H14  1  0.89040000  0.26660000  0.97000000  1.0 0.1480485061
H  H15  1  0.73340000  0.10960000  0.47000000  1.0 0.1397723861
H  H16  1  0.10960000  0.73340000  0.03000000  1.0 0.1480485061
H  H17  1  0.26980000  0.07920000  0.86230000  1.0 0.1192149929
H  H18  1  0.07920000  0.26980000  0.63770000  1.0 0.1192149929
H  H19  1  0.73020000  0.92080000  0.13770000  1.0 0.1192149929
H  H20  1  0.92080000  0.73020000  0.36230000  1.0 0.1192149929
H  H21  1  0.27240000  0.24860000  0.86720000  1.0 0.1397723861
H  H22  1  0.24860000  0.27240000  0.63280000  1.0 0.1397723861
H  H23  1  0.72760000  0.75140000  0.13280000  1.0 0.1397723861
H  H24  1  0.75140000  0.72760000  0.36720000  1.0 0.1397723861
H  H25  1  0.65460000  0.47980000  0.88210000  1.0 0.1397723861
H  H26  1  0.47980000  0.65460000  0.61790000  1.0 0.1397723861
H  H27  1  0.34540000  0.52020000  0.11790000  1.0 0.1397723861
H  H28  1  0.52020000  0.34540000  0.38210000  1.0 0.1397723861
H  H29  1  0.64280000  0.30440000  0.87820000  1.0 0.1132218651
H  H30  1  0.30440000  0.64280000  0.62180000  1.0 0.1132218651
H  H31  1  0.35720000  0.69560000  0.12180000  1.0 0.1132218651
H  H32  1  0.69560000  0.35720000  0.37820000  1.0 0.1132218651
H  H33  1  0.21060000  0.50540000  0.87980000  1.0 0.1480485061
H  H34  1  0.50540000  0.21060000  0.62020000  1.0 0.1480485061
H  H35  1  0.78940000  0.49460000  0.12020000  1.0 0.1480485061
H  H36  1  0.49460000  0.78940000  0.37980000  1.0 0.1480485061
H  H37  1  0.23470000  0.68950000  0.87410000  1.0 0.1292605623
H  H38  1  0.68950000  0.23470000  0.62590000  1.0 0.1292605623
H  H39  1  0.76530000  0.31050000  0.12590000  1.0 0.1292605623
H  H40  1  0.31050000  0.76530000  0.37410000  1.0 0.1292605623
H  H41  1  0.59880000  0.90100000  0.85110000  1.0 0.1132218651
H  H42  1  0.90100000  0.59880000  0.64890000  1.0 0.1132218651
H  H43  1  0.40120000  0.09900000  0.14890000  1.0 0.1132218651
H  H44  1  0.09900000  0.40120000  0.35110000  1.0 0.1132218651
H  H45  1  0.58670000  0.72330000  0.85890000  1.0 0.1292605623
H  H46  1  0.72330000  0.58670000  0.64110000  1.0 0.1292605623
H  H47  1  0.41330000  0.27670000  0.14110000  1.0 0.1292605623
H  H48  1  0.27670000  0.41330000  0.35890000  1.0 0.1292605623
C  C1  1  0.26547000  0.92973000  0.70760000  1.0 0.6125453635
C  C2  1  0.92973000  0.26547000  0.79240000  1.0 0.6125453635
C  C3  1  0.73453000  0.07027000  0.29240000  1.0 0.6125453635
C  C4  1  0.07027000  0.73453000  0.20760000  1.0 0.6125453635
C  C5  1  0.17465000  0.90315000  0.61670000  1.0 -0.2906098591
C  C6  1  0.90315000  0.17465000  0.88330000  1.0 -0.2906098591
C  C7  1  0.82535000  0.09685000  0.38330000  1.0 -0.2906098591
C  C8  1  0.09685000  0.82535000  0.11670000  1.0 -0.2906098591
C  C9  1  0.17882000  0.84058000  0.54390000  1.0 -0.3063052968
C  C10  1  0.84058000  0.17882000  0.95610000  1.0 -0.3063052968
C  C11  1  0.82118000  0.15942000  0.45610000  1.0 -0.3063052968
C  C12  1  0.15942000  0.82118000  0.04390000  1.0 -0.3063052968
C  C13  1  0.12754000  0.70466000  0.57730000  1.0 0.600275807
C  C14  1  0.70466000  0.12754000  0.92270000  1.0 0.600275807
C  C15  1  0.87246000  0.29534000  0.42270000  1.0 0.600275807
C  C16  1  0.29534000  0.87246000  0.07730000  1.0 0.600275807
C  C17  1  0.34796000  0.16084000  0.86650000  1.0 0.0785346179
C  C18  1  0.16084000  0.34796000  0.63350000  1.0 0.0785346179
C  C19  1  0.65204000  0.83916000  0.13350000  1.0 0.0785346179
C  C20  1  0.83916000  0.65204000  0.36650000  1.0 0.0785346179
C  C21  1  0.34861000  0.26179000  0.86930000  1.0 -0.2089892031
C  C22  1  0.26179000  0.34861000  0.63070000  1.0 -0.2089892031
C  C23  1  0.65139000  0.73821000  0.13070000  1.0 -0.2089892031
C  C24  1  0.73821000  0.65139000  0.36930000  1.0 -0.2089892031
C  C25  1  0.46422000  0.38198000  0.87520000  1.0 0.1657340302
C  C26  1  0.38198000  0.46422000  0.62480000  1.0 0.1657340302
C  C27  1  0.53578000  0.61802000  0.12480000  1.0 0.1657340302
C  C28  1  0.61802000  0.53578000  0.37520000  1.0 0.1657340302
C  C29  1  0.57551000  0.39889000  0.87830000  1.0 -0.2089892031
C  C30  1  0.39889000  0.57551000  0.62170000  1.0 -0.2089892031
C  C31  1  0.42449000  0.60111000  0.12170000  1.0 -0.2089892031
C  C32  1  0.60111000  0.42449000  0.37830000  1.0 -0.2089892031
C  C33  1  0.56753000  0.29307000  0.87570000  1.0 0.0979948946
C  C34  1  0.29307000  0.56753000  0.62430000  1.0 0.0979948946
C  C35  1  0.43247000  0.70693000  0.12430000  1.0 0.0979948946
C  C36  1  0.70693000  0.43247000  0.37570000  1.0 0.0979948946
C  C37  1  0.39752000  0.59608000  0.86960000  1.0 0.1657340302
C  C38  1  0.59608000  0.39752000  0.63040000  1.0 0.1657340302
C  C39  1  0.60248000  0.40392000  0.13040000  1.0 0.1657340302
C  C40  1  0.40392000  0.60248000  0.36960000  1.0 0.1657340302
C  C41  1  0.29065000  0.58515000  0.87470000  1.0 -0.1989787445
C  C42  1  0.58515000  0.29065000  0.62530000  1.0 -0.1989787445
C  C43  1  0.70935000  0.41485000  0.12530000  1.0 -0.1989787445
C  C44  1  0.41485000  0.70935000  0.37470000  1.0 -0.1989787445
C  C45  1  0.30639000  0.69621000  0.87190000  1.0 0.0979948946
C  C46  1  0.69621000  0.30639000  0.62810000  1.0 0.0979948946
C  C47  1  0.69361000  0.30379000  0.12810000  1.0 0.0979948946
C  C48  1  0.30379000  0.69361000  0.37190000  1.0 0.0979948946
C  C49  1  0.52031000  0.82029000  0.85870000  1.0 0.0887376292
C  C50  1  0.82029000  0.52031000  0.64130000  1.0 0.0887376292
C  C51  1  0.47969000  0.17971000  0.14130000  1.0 0.0887376292
C  C52  1  0.17971000  0.47969000  0.35870000  1.0 0.0887376292
C  C53  1  0.51378000  0.71422000  0.86190000  1.0 -0.2089892031
C  C54  1  0.71422000  0.51378000  0.63810000  1.0 -0.2089892031
C  C55  1  0.48622000  0.28578000  0.13810000  1.0 -0.2089892031
C  C56  1  0.28578000  0.48622000  0.36190000  1.0 -0.2089892031
N  N1  1  0.45675000  0.17645000  0.86980000  1.0 -0.2251887099
N  N2  1  0.17645000  0.45675000  0.63020000  1.0 -0.2245095448
N  N3  1  0.54325000  0.82355000  0.13020000  1.0 -0.2251887099
N  N4  1  0.82355000  0.54325000  0.36980000  1.0 -0.2251887099
N  N5  1  0.47818000  0.49622000  0.87550000  1.0 -0.0878959243
N  N6  1  0.49622000  0.47818000  0.62450000  1.0 -0.0878959243
N  N7  1  0.52182000  0.50378000  0.12450000  1.0 -0.0878959243
N  N8  1  0.50378000  0.52182000  0.37550000  1.0 -0.0878959243
N  N9  1  0.37991000  0.47929000  0.87240000  1.0 -0.1030211822
N  N10  1  0.47929000  0.37991000  0.62760000  1.0 -0.1030211822
N  N11  1  0.62009000  0.52071000  0.12760000  1.0 -0.1030211822
N  N12  1  0.52071000  0.62009000  0.37240000  1.0 -0.1030211822
N  N13  1  0.41981000  0.81279000  0.86610000  1.0 -0.2245095448
N  N14  1  0.81279000  0.41981000  0.63390000  1.0 -0.2245095448
N  N15  1  0.58019000  0.18721000  0.13390000  1.0 -0.2245095448
N  N16  1  0.18721000  0.58019000  0.36610000  1.0 -0.2245095448
O  O1  1  0.37931000  0.98249000  0.69772000  1.0 -0.5688404218
O  O2  1  0.98249000  0.37931000  0.80228000  1.0 -0.5688404218
O  O3  1  0.62069000  0.01751000  0.30228000  1.0 -0.5688404218
O  O4  1  0.01751000  0.62069000  0.19772000  1.0 -0.5688404218
O  O5  1  0.22845000  0.90435000  0.78880000  1.0 -0.5822725819
O  O6  1  0.90435000  0.22845000  0.71120000  1.0 -0.5822725819
O  O7  1  0.77155000  0.09565000  0.21120000  1.0 -0.5822725819
O  O8  1  0.09565000  0.77155000  0.28880000  1.0 -0.5822725819
O  O9  1  0.12469000  0.66711000  0.66403000  1.0 -0.5119817928
O  O10  1  0.66711000  0.12469000  0.83597000  1.0 -0.5119817928
O  O11  1  0.87531000  0.33289000  0.33597000  1.0 -0.5119817928
O  O12  1  0.33289000  0.87531000  0.16403000  1.0 -0.5119817928
O  O13  1  0.08565000  0.62915000  0.51583000  1.0 -0.5688404218
O  O14  1  0.62915000  0.08565000  0.98417000  1.0 -0.5688404218
O  O15  1  0.91435000  0.37085000  0.48417000  1.0 -0.5688404218
O  O16  1  0.37085000  0.91435000  0.01583000  1.0 -0.5688404218
