# DDEC6 charges by PACMAN v1.1 (https://github.com/mtap-research/PACMAN-charge/)
data_WIFBAQ_FSR_pacman
_symmetry_space_group_name_H-M   'P 1'
_cell_length_a   15.76860000
_cell_length_b   15.76860000
_cell_length_c   14.01460000
_cell_angle_alpha   88.09830000
_cell_angle_beta   91.90170000
_cell_angle_gamma   135.60600000
_symmetry_Int_Tables_number   1
_chemical_formula_structural   CdH18C18(NO)4
_chemical_formula_sum   'Cd4 H72 C72 N16 O16'
_cell_volume   2436.29868571
_cell_formula_units_Z   4
loop_
 _symmetry_equiv_pos_site_id
 _symmetry_equiv_pos_as_xyz
  1  'x, y, z'
loop_
 _atom_site_type_symbol
 _atom_site_label
 _atom_site_symmetry_multiplicity
 _atom_site_fract_x
 _atom_site_fract_y
 _atom_site_fract_z
 _atom_site_occupancy
 _atom_site_charge
Cd  Cd1  1  0.00656000  0.55204000  0.37246000  1.0 0.8478919856
Cd  Cd2  1  0.55204000  0.00656000  0.12754000  1.0 0.8478919856
Cd  Cd3  1  0.99344000  0.44796000  0.62754000  1.0 0.8478919856
Cd  Cd4  1  0.44796000  0.99344000  0.87246000  1.0 0.8478919856
H  H1  1  0.93040000  0.68940000  0.40990000  1.0 0.1198560309
H  H2  1  0.68940000  0.93040000  0.09010000  1.0 0.1198560309
H  H3  1  0.06960000  0.31060000  0.59010000  1.0 0.1198560309
H  H4  1  0.31060000  0.06960000  0.90990000  1.0 0.1198560309
H  H5  1  0.77150000  0.66890000  0.40750000  1.0 0.1416250361
H  H6  1  0.66890000  0.77150000  0.09250000  1.0 0.1416250361
H  H7  1  0.22850000  0.33110000  0.59250000  1.0 0.1416250361
H  H8  1  0.33110000  0.22850000  0.90750000  1.0 0.1416250361
H  H9  1  0.54810000  0.31070000  0.38310000  1.0 0.1325322196
H  H10  1  0.31070000  0.54810000  0.11690000  1.0 0.1325322196
H  H11  1  0.45190000  0.68930000  0.61690000  1.0 0.1325322196
H  H12  1  0.68930000  0.45190000  0.88310000  1.0 0.1325322196
H  H13  1  0.71440000  0.34260000  0.38590000  1.0 0.1198560309
H  H14  1  0.34260000  0.71440000  0.11410000  1.0 0.1198560309
H  H15  1  0.28560000  0.65740000  0.61410000  1.0 0.1198560309
H  H16  1  0.65740000  0.28560000  0.88590000  1.0 0.1198560309
H  H17  1  0.35200000  0.35200000  0.37240000  1.0 0.1505353692
H  H18  1  0.35200000  0.35200000  0.12760000  1.0 0.1505353692
H  H19  1  0.64800000  0.64800000  0.62760000  1.0 0.1505353692
H  H20  1  0.64800000  0.64800000  0.87240000  1.0 0.1505353692
H  H21  1  0.40160000  0.30820000  0.32080000  1.0 0.1505353692
H  H22  1  0.30820000  0.40160000  0.17920000  1.0 0.1505353692
H  H23  1  0.59840000  0.69180000  0.67920000  1.0 0.1505353692
H  H24  1  0.69180000  0.59840000  0.82080000  1.0 0.1505353692
H  H25  1  0.39350000  0.30090000  0.43240000  1.0 0.1505353692
H  H26  1  0.30090000  0.39350000  0.06760000  1.0 0.1505353692
H  H27  1  0.60650000  0.69910000  0.56760000  1.0 0.1505353692
H  H28  1  0.69910000  0.60650000  0.93240000  1.0 0.1505353692
H  H29  1  0.67100000  0.77180000  0.36970000  1.0 0.1505353692
H  H30  1  0.77180000  0.67100000  0.13030000  1.0 0.1505353692
H  H31  1  0.32900000  0.22820000  0.63030000  1.0 0.1505353692
H  H32  1  0.22820000  0.32900000  0.86970000  1.0 0.1505353692
H  H33  1  0.62310000  0.81510000  0.30730000  1.0 0.1505353692
H  H34  1  0.81510000  0.62310000  0.19270000  1.0 0.1505353692
H  H35  1  0.37690000  0.18490000  0.69270000  1.0 0.1505353692
H  H36  1  0.18490000  0.37690000  0.80730000  1.0 0.1505353692
H  H37  1  0.62290000  0.81850000  0.41890000  1.0 0.1505353692
H  H38  1  0.81850000  0.62290000  0.08110000  1.0 0.1505353692
H  H39  1  0.37710000  0.18150000  0.58110000  1.0 0.1505353692
H  H40  1  0.18150000  0.37710000  0.91890000  1.0 0.1505353692
H  H41  1  0.46750000  0.80650000  0.37030000  1.0 0.1416250361
H  H42  1  0.80650000  0.46750000  0.12970000  1.0 0.1416250361
H  H43  1  0.53250000  0.19350000  0.62970000  1.0 0.1416250361
H  H44  1  0.19350000  0.53250000  0.87030000  1.0 0.1416250361
H  H45  1  0.29600000  0.76480000  0.36530000  1.0 0.1325322196
H  H46  1  0.76480000  0.29600000  0.13470000  1.0 0.1325322196
H  H47  1  0.70400000  0.23520000  0.63470000  1.0 0.1325322196
H  H48  1  0.23520000  0.70400000  0.86530000  1.0 0.1325322196
H  H49  1  0.09260000  0.42160000  0.34000000  1.0 0.111428111
H  H50  1  0.42160000  0.09260000  0.16000000  1.0 0.111428111
H  H51  1  0.90740000  0.57840000  0.66000000  1.0 0.111428111
H  H52  1  0.57840000  0.90740000  0.84000000  1.0 0.111428111
H  H53  1  0.25630000  0.45070000  0.34850000  1.0 0.1325322196
H  H54  1  0.45070000  0.25630000  0.15150000  1.0 0.1325322196
H  H55  1  0.74370000  0.54930000  0.65150000  1.0 0.1325322196
H  H56  1  0.54930000  0.74370000  0.84850000  1.0 0.1325322196
H  H57  1  0.18190000  0.89750000  0.18610000  1.0 0.1198560309
H  H58  1  0.89750000  0.18190000  0.31390000  1.0 0.1198560309
H  H59  1  0.81810000  0.10250000  0.81390000  1.0 0.1198560309
H  H60  1  0.10250000  0.81810000  0.68610000  1.0 0.1198560309
H  H61  1  0.05410000  0.79750000  0.13730000  1.0 0.1198560309
H  H62  1  0.79750000  0.05410000  0.36270000  1.0 0.1198560309
H  H63  1  0.94590000  0.20250000  0.86270000  1.0 0.1198560309
H  H64  1  0.20250000  0.94590000  0.63730000  1.0 0.1198560309
H  H65  1  0.18850000  0.86410000  0.02160000  1.0 0.1325322196
H  H66  1  0.86410000  0.18850000  0.47840000  1.0 0.1325322196
H  H67  1  0.81150000  0.13590000  0.97840000  1.0 0.1325322196
H  H68  1  0.13590000  0.81150000  0.52160000  1.0 0.1325322196
H  H69  1  0.13260000  0.73620000  0.05220000  1.0 0.1416250361
H  H70  1  0.73620000  0.13260000  0.44780000  1.0 0.1416250361
H  H71  1  0.86740000  0.26380000  0.94780000  1.0 0.1416250361
H  H72  1  0.26380000  0.86740000  0.55220000  1.0 0.1416250361
C  C1  1  0.85212000  0.61228000  0.40300000  1.0 0.0694278248
C  C2  1  0.61228000  0.85212000  0.09700000  1.0 0.0694278248
C  C3  1  0.14788000  0.38772000  0.59700000  1.0 0.0694278248
C  C4  1  0.38772000  0.14788000  0.90300000  1.0 0.0694278248
C  C5  1  0.75746000  0.60114000  0.40140000  1.0 -0.1723737426
C  C6  1  0.60114000  0.75746000  0.09860000  1.0 -0.1723737426
C  C7  1  0.24254000  0.39886000  0.59860000  1.0 -0.1723737426
C  C8  1  0.39886000  0.24254000  0.90140000  1.0 -0.1723737426
C  C9  1  0.64101000  0.48739000  0.39060000  1.0 0.0805374526
C  C10  1  0.48739000  0.64101000  0.10940000  1.0 0.0805374526
C  C11  1  0.35899000  0.51261000  0.60940000  1.0 0.0805374526
C  C12  1  0.51261000  0.35899000  0.89060000  1.0 0.0805374526
C  C13  1  0.62544000  0.38916000  0.38690000  1.0 -0.181204059
C  C14  1  0.38916000  0.62544000  0.11310000  1.0 -0.181204059
C  C15  1  0.37456000  0.61084000  0.61310000  1.0 -0.181204059
C  C16  1  0.61084000  0.37456000  0.88690000  1.0 -0.181204059
C  C17  1  0.72590000  0.40910000  0.38900000  1.0 0.0805374526
C  C18  1  0.40910000  0.72590000  0.11100000  1.0 0.0805374526
C  C19  1  0.27410000  0.59090000  0.61100000  1.0 0.0805374526
C  C20  1  0.59090000  0.27410000  0.88900000  1.0 0.0805374526
C  C21  1  0.53550000  0.47250000  0.38290000  1.0 0.2681297652
C  C22  1  0.47250000  0.53550000  0.11710000  1.0 0.2681297652
C  C23  1  0.46450000  0.52750000  0.61710000  1.0 0.2681297652
C  C24  1  0.52750000  0.46450000  0.88290000  1.0 0.2681297652
C  C25  1  0.40931000  0.34709000  0.37660000  1.0 -0.509458103
C  C26  1  0.34709000  0.40931000  0.12340000  1.0 -0.509458103
C  C27  1  0.59069000  0.65291000  0.62340000  1.0 -0.509458103
C  C28  1  0.65291000  0.59069000  0.87660000  1.0 -0.509458103
C  C29  1  0.61220000  0.77480000  0.36560000  1.0 -0.509458103
C  C30  1  0.77480000  0.61220000  0.13440000  1.0 -0.509458103
C  C31  1  0.38780000  0.22520000  0.63440000  1.0 -0.509458103
C  C32  1  0.22520000  0.38780000  0.86560000  1.0 -0.509458103
C  C33  1  0.48938000  0.65062000  0.36690000  1.0 0.2539550133
C  C34  1  0.65062000  0.48938000  0.13310000  1.0 0.2539550133
C  C35  1  0.51062000  0.34938000  0.63310000  1.0 0.2539550133
C  C36  1  0.34938000  0.51062000  0.86690000  1.0 0.2539550133
C  C37  1  0.38209000  0.63231000  0.36110000  1.0 0.0629092596
C  C38  1  0.63231000  0.38209000  0.13890000  1.0 0.0629092596
C  C39  1  0.61791000  0.36769000  0.63890000  1.0 0.0629092596
C  C40  1  0.36769000  0.61791000  0.86110000  1.0 0.0629092596
C  C41  1  0.39198000  0.72682000  0.36530000  1.0 -0.181204059
C  C42  1  0.72682000  0.39198000  0.13470000  1.0 -0.181204059
C  C43  1  0.60802000  0.27318000  0.63470000  1.0 -0.181204059
C  C44  1  0.27318000  0.60802000  0.86530000  1.0 -0.181204059
C  C45  1  0.28821000  0.70059000  0.36210000  1.0 0.0970901541
C  C46  1  0.70059000  0.28821000  0.13790000  1.0 0.0970901541
C  C47  1  0.71179000  0.29941000  0.63790000  1.0 0.0970901541
C  C48  1  0.29941000  0.71179000  0.86210000  1.0 0.0970901541
C  C49  1  0.16929000  0.49991000  0.34790000  1.0 0.0694278248
C  C50  1  0.49991000  0.16929000  0.15210000  1.0 0.0694278248
C  C51  1  0.83071000  0.50009000  0.65210000  1.0 0.0694278248
C  C52  1  0.50009000  0.83071000  0.84790000  1.0 0.0694278248
C  C53  1  0.26708000  0.51672000  0.35190000  1.0 -0.181204059
C  C54  1  0.51672000  0.26708000  0.14810000  1.0 -0.181204059
C  C55  1  0.73292000  0.48328000  0.64810000  1.0 -0.181204059
C  C56  1  0.48328000  0.73292000  0.85190000  1.0 -0.181204059
C  C57  1  0.08816000  0.72564000  0.23750000  1.0 0.6063798062
C  C58  1  0.72564000  0.08816000  0.26250000  1.0 0.6063798062
C  C59  1  0.91184000  0.27436000  0.76250000  1.0 0.6063798062
C  C60  1  0.27436000  0.91184000  0.73750000  1.0 0.6063798062
C  C61  1  0.12536000  0.81704000  0.15910000  1.0 -0.2870112963
C  C62  1  0.81704000  0.12536000  0.34090000  1.0 -0.2870112963
C  C63  1  0.87464000  0.18296000  0.84090000  1.0 -0.2870112963
C  C64  1  0.18296000  0.87464000  0.65910000  1.0 -0.2870112963
C  C65  1  0.18380000  0.81860000  0.07340000  1.0 -0.3050954051
C  C66  1  0.81860000  0.18380000  0.42660000  1.0 -0.3050954051
C  C67  1  0.81620000  0.18140000  0.92660000  1.0 -0.3050954051
C  C68  1  0.18140000  0.81620000  0.57340000  1.0 -0.3050954051
C  C69  1  0.30842000  0.87378000  0.09500000  1.0 0.6033470028
C  C70  1  0.87378000  0.30842000  0.40500000  1.0 0.6033470028
C  C71  1  0.69158000  0.12622000  0.90500000  1.0 0.6033470028
C  C72  1  0.12622000  0.69158000  0.59500000  1.0 0.6033470028
N  N1  1  0.83815000  0.51845000  0.39510000  1.0 -0.237935108
N  N2  1  0.51845000  0.83815000  0.10490000  1.0 -0.237935108
N  N3  1  0.16185000  0.48155000  0.60490000  1.0 -0.237935108
N  N4  1  0.48155000  0.16185000  0.89510000  1.0 -0.237935108
N  N5  1  0.56475000  0.57225000  0.37990000  1.0 -0.237935108
N  N6  1  0.57225000  0.56475000  0.12010000  1.0 -0.237935108
N  N7  1  0.43525000  0.42775000  0.62010000  1.0 -0.237935108
N  N8  1  0.42775000  0.43525000  0.87990000  1.0 -0.237935108
N  N9  1  0.46366000  0.55454000  0.37150000  1.0 -0.237935108
N  N10  1  0.55454000  0.46366000  0.12850000  1.0 -0.237935108
N  N11  1  0.53634000  0.44546000  0.62850000  1.0 -0.237935108
N  N12  1  0.44546000  0.53634000  0.87150000  1.0 -0.237935108
N  N13  1  0.17811000  0.59009000  0.35460000  1.0 -0.223441229
N  N14  1  0.59009000  0.17811000  0.14540000  1.0 -0.223441229
N  N15  1  0.82189000  0.40991000  0.64540000  1.0 -0.223441229
N  N16  1  0.40991000  0.82189000  0.85460000  1.0 -0.223441229
O  O1  1  0.03098000  0.62062000  0.21310000  1.0 -0.5604042716
O  O2  1  0.62062000  0.03098000  0.28690000  1.0 -0.5604042716
O  O3  1  0.96902000  0.37938000  0.78690000  1.0 -0.5604042716
O  O4  1  0.37938000  0.96902000  0.71310000  1.0 -0.5604042716
O  O5  1  0.11079000  0.75601000  0.32290000  1.0 -0.575125993
O  O6  1  0.75601000  0.11079000  0.17710000  1.0 -0.575125993
O  O7  1  0.88921000  0.24399000  0.67710000  1.0 -0.575125993
O  O8  1  0.24399000  0.88921000  0.82290000  1.0 -0.575125993
O  O9  1  0.34171000  0.87989000  0.17820000  1.0 -0.5221477754
O  O10  1  0.87989000  0.34171000  0.32180000  1.0 -0.5221477754
O  O11  1  0.65829000  0.12011000  0.82180000  1.0 -0.5221477754
O  O12  1  0.12011000  0.65829000  0.67820000  1.0 -0.5221477754
O  O13  1  0.37978000  0.91702000  0.02690000  1.0 -0.5667685576
O  O14  1  0.91702000  0.37978000  0.47310000  1.0 -0.5667685576
O  O15  1  0.62022000  0.08298000  0.97310000  1.0 -0.5667685576
O  O16  1  0.08298000  0.62022000  0.52690000  1.0 -0.5667685576
