# DDEC6 charges by PACMAN v1.1 (https://github.com/mtap-research/PACMAN-charge/)
data_WIFGUP_FSR_pacman
_symmetry_space_group_name_H-M   'P 1'
_cell_length_a   13.09590000
_cell_length_b   13.09590000
_cell_length_c   13.65000000
_cell_angle_alpha   90.00000000
_cell_angle_beta   90.00000000
_cell_angle_gamma   120.00000000
_symmetry_Int_Tables_number   1
_chemical_formula_structural   Cd5H54(C2N3)12
_chemical_formula_sum   'Cd10 H108 C48 N72'
_cell_volume   2027.37451716
_cell_formula_units_Z   2
loop_
 _symmetry_equiv_pos_site_id
 _symmetry_equiv_pos_as_xyz
  1  'x, y, z'
loop_
 _atom_site_type_symbol
 _atom_site_label
 _atom_site_symmetry_multiplicity
 _atom_site_fract_x
 _atom_site_fract_y
 _atom_site_fract_z
 _atom_site_occupancy
 _atom_site_charge
Cd  Cd1  1  0.00000000  0.50000000  0.00000000  1.0 0.7032578353
Cd  Cd2  1  0.50000000  0.50000000  0.00000000  1.0 0.7032578353
Cd  Cd3  1  0.50000000  0.00000000  0.00000000  1.0 0.7032578353
Cd  Cd4  1  0.50000000  0.00000000  0.50000000  1.0 0.7032578353
Cd  Cd5  1  0.50000000  0.50000000  0.50000000  1.0 0.7032578353
Cd  Cd6  1  0.00000000  0.50000000  0.50000000  1.0 0.7032578353
Cd  Cd7  1  0.33333333  0.66666667  0.10370000  1.0 0.6274893348
Cd  Cd8  1  0.33333333  0.66666667  0.39630000  1.0 0.6274893348
Cd  Cd9  1  0.66666667  0.33333333  0.89630000  1.0 0.6274893348
Cd  Cd10  1  0.66666667  0.33333333  0.60370000  1.0 0.6274893348
H  H1  1  0.01830000  0.81270000  0.09450000  1.0 0.1399488749
H  H2  1  0.18730000  0.20560000  0.09450000  1.0 0.1399488749
H  H3  1  0.79440000  0.98170000  0.09450000  1.0 0.1399488749
H  H4  1  0.18730000  0.98170000  0.40550000  1.0 0.1399488749
H  H5  1  0.79440000  0.81270000  0.40550000  1.0 0.1399488749
H  H6  1  0.01830000  0.20560000  0.40550000  1.0 0.1399488749
H  H7  1  0.98170000  0.18730000  0.90550000  1.0 0.1399488749
H  H8  1  0.81270000  0.79440000  0.90550000  1.0 0.1399488749
H  H9  1  0.20560000  0.01830000  0.90550000  1.0 0.1399488749
H  H10  1  0.81270000  0.01830000  0.59450000  1.0 0.1399488749
H  H11  1  0.20560000  0.18730000  0.59450000  1.0 0.1399488749
H  H12  1  0.98170000  0.79440000  0.59450000  1.0 0.1399488749
H  H13  1  0.02890000  0.72040000  0.16050000  1.0 0.1399488749
H  H14  1  0.27960000  0.30850000  0.16050000  1.0 0.1399488749
H  H15  1  0.69150000  0.97110000  0.16050000  1.0 0.1399488749
H  H16  1  0.27960000  0.97110000  0.33950000  1.0 0.1399488749
H  H17  1  0.69150000  0.72040000  0.33950000  1.0 0.1399488749
H  H18  1  0.02890000  0.30850000  0.33950000  1.0 0.1399488749
H  H19  1  0.97110000  0.27960000  0.83950000  1.0 0.1399488749
H  H20  1  0.72040000  0.69150000  0.83950000  1.0 0.1399488749
H  H21  1  0.30850000  0.02890000  0.83950000  1.0 0.1399488749
H  H22  1  0.72040000  0.02890000  0.66050000  1.0 0.1399488749
H  H23  1  0.30850000  0.27960000  0.66050000  1.0 0.1399488749
H  H24  1  0.97110000  0.69150000  0.66050000  1.0 0.1399488749
H  H25  1  0.94820000  0.77110000  0.19330000  1.0 0.1112903377
H  H26  1  0.22890000  0.17710000  0.19330000  1.0 0.1112903377
H  H27  1  0.82290000  0.05180000  0.19330000  1.0 0.1112903377
H  H28  1  0.22890000  0.05180000  0.30670000  1.0 0.1112903377
H  H29  1  0.82290000  0.77110000  0.30670000  1.0 0.1112903377
H  H30  1  0.94820000  0.17710000  0.30670000  1.0 0.1112903377
H  H31  1  0.05180000  0.22890000  0.80670000  1.0 0.1112903377
H  H32  1  0.77110000  0.82290000  0.80670000  1.0 0.1112903377
H  H33  1  0.17710000  0.94820000  0.80670000  1.0 0.1112903377
H  H34  1  0.77110000  0.94820000  0.69330000  1.0 0.1112903377
H  H35  1  0.17710000  0.22890000  0.69330000  1.0 0.1112903377
H  H36  1  0.05180000  0.82290000  0.69330000  1.0 0.1112903377
H  H37  1  0.81680000  0.76670000  0.19670000  1.0 0.1112903377
H  H38  1  0.23330000  0.05010000  0.19670000  1.0 0.1112903377
H  H39  1  0.94990000  0.18320000  0.19670000  1.0 0.1112903377
H  H40  1  0.23330000  0.18320000  0.30330000  1.0 0.1112903377
H  H41  1  0.94990000  0.76670000  0.30330000  1.0 0.1112903377
H  H42  1  0.81680000  0.05010000  0.30330000  1.0 0.1112903377
H  H43  1  0.18320000  0.23330000  0.80330000  1.0 0.1112903377
H  H44  1  0.76670000  0.94990000  0.80330000  1.0 0.1112903377
H  H45  1  0.05010000  0.81680000  0.80330000  1.0 0.1112903377
H  H46  1  0.76670000  0.81680000  0.69670000  1.0 0.1112903377
H  H47  1  0.05010000  0.23330000  0.69670000  1.0 0.1112903377
H  H48  1  0.18320000  0.94990000  0.69670000  1.0 0.1112903377
H  H49  1  0.68960000  0.72120000  0.15520000  1.0 0.1285807219
H  H50  1  0.27880000  0.96840000  0.15520000  1.0 0.1285807219
H  H51  1  0.03160000  0.31040000  0.15520000  1.0 0.1285807219
H  H52  1  0.27880000  0.31040000  0.34480000  1.0 0.1285807219
H  H53  1  0.03160000  0.72120000  0.34480000  1.0 0.1285807219
H  H54  1  0.68960000  0.96840000  0.34480000  1.0 0.1285807219
H  H55  1  0.31040000  0.27880000  0.84480000  1.0 0.1285807219
H  H56  1  0.72120000  0.03160000  0.84480000  1.0 0.1285807219
H  H57  1  0.96840000  0.68960000  0.84480000  1.0 0.1285807219
H  H58  1  0.72120000  0.68960000  0.65520000  1.0 0.1285807219
H  H59  1  0.96840000  0.27880000  0.65520000  1.0 0.1285807219
H  H60  1  0.31040000  0.03160000  0.65520000  1.0 0.1285807219
H  H61  1  0.79970000  0.81520000  0.09670000  1.0 0.1285807219
H  H62  1  0.18480000  0.98450000  0.09670000  1.0 0.1285807219
H  H63  1  0.01550000  0.20030000  0.09670000  1.0 0.1285807219
H  H64  1  0.18480000  0.20030000  0.40330000  1.0 0.1285807219
H  H65  1  0.01550000  0.81520000  0.40330000  1.0 0.1285807219
H  H66  1  0.79970000  0.98450000  0.40330000  1.0 0.1285807219
H  H67  1  0.20030000  0.18480000  0.90330000  1.0 0.1285807219
H  H68  1  0.81520000  0.01550000  0.90330000  1.0 0.1285807219
H  H69  1  0.98450000  0.79970000  0.90330000  1.0 0.1285807219
H  H70  1  0.81520000  0.79970000  0.59670000  1.0 0.1285807219
H  H71  1  0.98450000  0.18480000  0.59670000  1.0 0.1285807219
H  H72  1  0.20030000  0.01550000  0.59670000  1.0 0.1285807219
H  H73  1  0.82410000  0.34300000  0.25380000  1.0 0.0872886916
H  H74  1  0.65700000  0.48110000  0.25380000  1.0 0.0872886916
H  H75  1  0.51890000  0.17590000  0.25380000  1.0 0.0872886916
H  H76  1  0.65700000  0.17590000  0.24620000  1.0 0.0872886916
H  H77  1  0.51890000  0.34300000  0.24620000  1.0 0.0872886916
H  H78  1  0.82410000  0.48110000  0.24620000  1.0 0.0872886916
H  H79  1  0.17590000  0.65700000  0.74620000  1.0 0.0872886916
H  H80  1  0.34300000  0.51890000  0.74620000  1.0 0.0872886916
H  H81  1  0.48110000  0.82410000  0.74620000  1.0 0.0872886916
H  H82  1  0.34300000  0.82410000  0.75380000  1.0 0.0872886916
H  H83  1  0.48110000  0.65700000  0.75380000  1.0 0.0872886916
H  H84  1  0.17590000  0.51890000  0.75380000  1.0 0.0872886916
H  H85  1  0.82410000  0.44310000  0.19080000  1.0 0.0769452504
H  H86  1  0.55690000  0.38100000  0.19080000  1.0 0.0769452504
H  H87  1  0.61900000  0.17590000  0.19080000  1.0 0.0769452504
H  H88  1  0.55690000  0.17590000  0.30920000  1.0 0.0769452504
H  H89  1  0.61900000  0.44310000  0.30920000  1.0 0.0769452504
H  H90  1  0.82410000  0.38100000  0.30920000  1.0 0.0769452504
H  H91  1  0.17590000  0.55690000  0.80920000  1.0 0.0769452504
H  H92  1  0.44310000  0.61900000  0.80920000  1.0 0.0769452504
H  H93  1  0.38100000  0.82410000  0.80920000  1.0 0.0769452504
H  H94  1  0.44310000  0.82410000  0.69080000  1.0 0.0769452504
H  H95  1  0.38100000  0.55690000  0.69080000  1.0 0.0769452504
H  H96  1  0.17590000  0.61900000  0.69080000  1.0 0.0769452504
H  H97  1  0.82410000  0.44990000  0.30550000  1.0 0.0769452504
H  H98  1  0.55010000  0.37420000  0.30550000  1.0 0.0769452504
H  H99  1  0.62580000  0.17590000  0.30550000  1.0 0.0769452504
H  H100  1  0.55010000  0.17590000  0.19450000  1.0 0.0769452504
H  H101  1  0.62580000  0.44990000  0.19450000  1.0 0.0769452504
H  H102  1  0.82410000  0.37420000  0.19450000  1.0 0.0769452504
H  H103  1  0.17590000  0.55010000  0.69450000  1.0 0.0769452504
H  H104  1  0.44990000  0.62580000  0.69450000  1.0 0.0769452504
H  H105  1  0.37420000  0.82410000  0.69450000  1.0 0.0769452504
H  H106  1  0.44990000  0.82410000  0.80550000  1.0 0.0769452504
H  H107  1  0.37420000  0.55010000  0.80550000  1.0 0.0769452504
H  H108  1  0.17590000  0.62580000  0.80550000  1.0 0.0769452504
C  C1  1  0.97900000  0.48950000  0.25000000  1.0 0.2196332479
C  C2  1  0.51050000  0.48950000  0.25000000  1.0 0.2196332479
C  C3  1  0.51050000  0.02100000  0.25000000  1.0 0.2196332479
C  C4  1  0.02100000  0.51050000  0.75000000  1.0 0.2196332479
C  C5  1  0.48950000  0.51050000  0.75000000  1.0 0.2196332479
C  C6  1  0.48950000  0.97900000  0.75000000  1.0 0.2196332479
C  C7  1  0.85200000  0.42600000  0.25000000  1.0 -0.418435895
C  C8  1  0.57400000  0.42600000  0.25000000  1.0 -0.418435895
C  C9  1  0.57400000  0.14800000  0.25000000  1.0 -0.418435895
C  C10  1  0.14800000  0.57400000  0.75000000  1.0 -0.418435895
C  C11  1  0.42600000  0.57400000  0.75000000  1.0 -0.418435895
C  C12  1  0.42600000  0.85200000  0.75000000  1.0 -0.418435895
C  C13  1  0.87550000  0.64980000  0.08570000  1.0 0.242989169
C  C14  1  0.35020000  0.22570000  0.08570000  1.0 0.242989169
C  C15  1  0.77430000  0.12450000  0.08570000  1.0 0.242989169
C  C16  1  0.35020000  0.12450000  0.41430000  1.0 0.242989169
C  C17  1  0.77430000  0.64980000  0.41430000  1.0 0.242989169
C  C18  1  0.87550000  0.22570000  0.41430000  1.0 0.242989169
C  C19  1  0.12450000  0.35020000  0.91430000  1.0 0.242989169
C  C20  1  0.64980000  0.77430000  0.91430000  1.0 0.242989169
C  C21  1  0.22570000  0.87550000  0.91430000  1.0 0.242989169
C  C22  1  0.64980000  0.87550000  0.58570000  1.0 0.242989169
C  C23  1  0.22570000  0.35020000  0.58570000  1.0 0.242989169
C  C24  1  0.12450000  0.77430000  0.58570000  1.0 0.242989169
C  C25  1  0.97700000  0.74700000  0.13800000  1.0 -0.5409023152
C  C26  1  0.25300000  0.23000000  0.13800000  1.0 -0.5409023152
C  C27  1  0.77000000  0.02300000  0.13800000  1.0 -0.5409023152
C  C28  1  0.25300000  0.02300000  0.36200000  1.0 -0.5409023152
C  C29  1  0.77000000  0.74700000  0.36200000  1.0 -0.5409023152
C  C30  1  0.97700000  0.23000000  0.36200000  1.0 -0.5409023152
C  C31  1  0.02300000  0.25300000  0.86200000  1.0 -0.5409023152
C  C32  1  0.74700000  0.77000000  0.86200000  1.0 -0.5409023152
C  C33  1  0.23000000  0.97700000  0.86200000  1.0 -0.5409023152
C  C34  1  0.74700000  0.97700000  0.63800000  1.0 -0.5409023152
C  C35  1  0.23000000  0.25300000  0.63800000  1.0 -0.5409023152
C  C36  1  0.02300000  0.77000000  0.63800000  1.0 -0.5409023152
C  C37  1  0.77000000  0.74700000  0.13800000  1.0 -0.3666542059
C  C38  1  0.25300000  0.02300000  0.13800000  1.0 -0.3666542059
C  C39  1  0.97700000  0.23000000  0.13800000  1.0 -0.3666542059
C  C40  1  0.25300000  0.23000000  0.36200000  1.0 -0.3666542059
C  C41  1  0.97700000  0.74700000  0.36200000  1.0 -0.3666542059
C  C42  1  0.77000000  0.02300000  0.36200000  1.0 -0.3666542059
C  C43  1  0.23000000  0.25300000  0.86200000  1.0 -0.3666542059
C  C44  1  0.74700000  0.97700000  0.86200000  1.0 -0.3666542059
C  C45  1  0.02300000  0.77000000  0.86200000  1.0 -0.3666542059
C  C46  1  0.74700000  0.77000000  0.63800000  1.0 -0.3666542059
C  C47  1  0.02300000  0.25300000  0.63800000  1.0 -0.3666542059
C  C48  1  0.23000000  0.97700000  0.63800000  1.0 -0.3666542059
N  N1  1  0.05000000  0.52520000  0.16860000  1.0 -0.3065275436
N  N2  1  0.47480000  0.52480000  0.16860000  1.0 -0.3065275436
N  N3  1  0.47520000  0.95000000  0.16860000  1.0 -0.3065275436
N  N4  1  0.47480000  0.95000000  0.33140000  1.0 -0.3065275436
N  N5  1  0.47520000  0.52520000  0.33140000  1.0 -0.3065275436
N  N6  1  0.05000000  0.52480000  0.33140000  1.0 -0.3065275436
N  N7  1  0.95000000  0.47480000  0.83140000  1.0 -0.3065275436
N  N8  1  0.52520000  0.47520000  0.83140000  1.0 -0.3065275436
N  N9  1  0.52480000  0.05000000  0.83140000  1.0 -0.3065275436
N  N10  1  0.52520000  0.05000000  0.66860000  1.0 -0.3065275436
N  N11  1  0.52480000  0.47480000  0.66860000  1.0 -0.3065275436
N  N12  1  0.95000000  0.47520000  0.66860000  1.0 -0.3065275436
N  N13  1  0.16330000  0.58140000  0.20270000  1.0 -0.1015755656
N  N14  1  0.41860000  0.58190000  0.20270000  1.0 -0.1015755656
N  N15  1  0.41810000  0.83670000  0.20270000  1.0 -0.1015755656
N  N16  1  0.41860000  0.83670000  0.29730000  1.0 -0.1015755656
N  N17  1  0.41810000  0.58140000  0.29730000  1.0 -0.1015755656
N  N18  1  0.16330000  0.58190000  0.29730000  1.0 -0.1015755656
N  N19  1  0.83670000  0.41860000  0.79730000  1.0 -0.1015755656
N  N20  1  0.58140000  0.41810000  0.79730000  1.0 -0.1015755656
N  N21  1  0.58190000  0.16330000  0.79730000  1.0 -0.1015755656
N  N22  1  0.58140000  0.16330000  0.70270000  1.0 -0.1015755656
N  N23  1  0.58190000  0.41860000  0.70270000  1.0 -0.1015755656
N  N24  1  0.83670000  0.41810000  0.70270000  1.0 -0.1015755656
N  N25  1  0.86130000  0.55920000  0.03280000  1.0 -0.2683779533
N  N26  1  0.44080000  0.30210000  0.03280000  1.0 -0.2683779533
N  N27  1  0.69790000  0.13870000  0.03280000  1.0 -0.2683779533
N  N28  1  0.44080000  0.13870000  0.46720000  1.0 -0.2683779533
N  N29  1  0.69790000  0.55920000  0.46720000  1.0 -0.2683779533
N  N30  1  0.86130000  0.30210000  0.46720000  1.0 -0.2683779533
N  N31  1  0.13870000  0.44080000  0.96720000  1.0 -0.2683779533
N  N32  1  0.55920000  0.69790000  0.96720000  1.0 -0.2683779533
N  N33  1  0.30210000  0.86130000  0.96720000  1.0 -0.2683779533
N  N34  1  0.55920000  0.86130000  0.53280000  1.0 -0.2683779533
N  N35  1  0.30210000  0.44080000  0.53280000  1.0 -0.2683779533
N  N36  1  0.13870000  0.69790000  0.53280000  1.0 -0.2683779533
N  N37  1  0.75180000  0.50470000  0.00070000  1.0 -0.0795690279
N  N38  1  0.49530000  0.24710000  0.00070000  1.0 -0.0795690279
N  N39  1  0.75290000  0.24820000  0.00070000  1.0 -0.0795690279
N  N40  1  0.49530000  0.24820000  0.49930000  1.0 -0.0795690279
N  N41  1  0.75290000  0.50470000  0.49930000  1.0 -0.0795690279
N  N42  1  0.75180000  0.24710000  0.49930000  1.0 -0.0795690279
N  N43  1  0.24820000  0.49530000  0.99930000  1.0 -0.0795690279
N  N44  1  0.50470000  0.75290000  0.99930000  1.0 -0.0795690279
N  N45  1  0.24710000  0.75180000  0.99930000  1.0 -0.0795690279
N  N46  1  0.50470000  0.75180000  0.50070000  1.0 -0.0795690279
N  N47  1  0.24710000  0.49530000  0.50070000  1.0 -0.0795690279
N  N48  1  0.24820000  0.75290000  0.50070000  1.0 -0.0795690279
N  N49  1  0.69890000  0.56000000  0.03330000  1.0 -0.1185375754
N  N50  1  0.44000000  0.13890000  0.03330000  1.0 -0.1185375754
N  N51  1  0.86110000  0.30110000  0.03330000  1.0 -0.1185375754
N  N52  1  0.44000000  0.30110000  0.46670000  1.0 -0.1185375754
N  N53  1  0.86110000  0.56000000  0.46670000  1.0 -0.1185375754
N  N54  1  0.69890000  0.13890000  0.46670000  1.0 -0.1185375754
N  N55  1  0.30110000  0.44000000  0.96670000  1.0 -0.1185375754
N  N56  1  0.56000000  0.86110000  0.96670000  1.0 -0.1185375754
N  N57  1  0.13890000  0.69890000  0.96670000  1.0 -0.1185375754
N  N58  1  0.56000000  0.69890000  0.53330000  1.0 -0.1185375754
N  N59  1  0.13890000  0.44000000  0.53330000  1.0 -0.1185375754
N  N60  1  0.30110000  0.86110000  0.53330000  1.0 -0.1185375754
N  N61  1  0.77610000  0.65030000  0.08500000  1.0 0.0769452504
N  N62  1  0.34970000  0.12580000  0.08500000  1.0 0.0769452504
N  N63  1  0.87420000  0.22390000  0.08500000  1.0 0.0769452504
N  N64  1  0.34970000  0.22390000  0.41500000  1.0 0.0769452504
N  N65  1  0.87420000  0.65030000  0.41500000  1.0 0.0769452504
N  N66  1  0.77610000  0.12580000  0.41500000  1.0 0.0769452504
N  N67  1  0.22390000  0.34970000  0.91500000  1.0 0.0769452504
N  N68  1  0.65030000  0.87420000  0.91500000  1.0 0.0769452504
N  N69  1  0.12580000  0.77610000  0.91500000  1.0 0.0769452504
N  N70  1  0.65030000  0.77610000  0.58500000  1.0 0.0769452504
N  N71  1  0.12580000  0.34970000  0.58500000  1.0 0.0769452504
N  N72  1  0.22390000  0.87420000  0.58500000  1.0 0.0769452504
