# DDEC6 charges by PACMAN v1.1 (https://github.com/mtap-research/PACMAN-charge/)
data_WIGBAS_FSR_pacman
_symmetry_space_group_name_H-M   'P 1'
_cell_length_a   10.21970000
_cell_length_b   15.14790000
_cell_length_c   15.73700000
_cell_angle_alpha   71.52500000
_cell_angle_beta   85.24300000
_cell_angle_gamma   79.56200000
_symmetry_Int_Tables_number   1
_chemical_formula_structural   Cd2H30C37(N3O5)2
_chemical_formula_sum   'Cd4 H60 C74 N12 O20'
_cell_volume   2271.55282238
_cell_formula_units_Z   2
loop_
 _symmetry_equiv_pos_site_id
 _symmetry_equiv_pos_as_xyz
  1  'x, y, z'
loop_
 _atom_site_type_symbol
 _atom_site_label
 _atom_site_symmetry_multiplicity
 _atom_site_fract_x
 _atom_site_fract_y
 _atom_site_fract_z
 _atom_site_occupancy
 _atom_site_charge
Cd  Cd1  1  0.75599000  0.57783000  0.70326000  1.0 0.8241905138
Cd  Cd2  1  0.73212000  0.76326000  0.92609000  1.0 0.7855717108
Cd  Cd3  1  0.24401000  0.42217000  0.29674000  1.0 0.8241905138
Cd  Cd4  1  0.26788000  0.23674000  0.07391000  1.0 0.7855717108
H  H1  1  0.67440000  0.75150000  0.71920000  1.0 0.3379507229
H  H2  1  0.80940000  0.73890000  0.71630000  1.0 0.3497644827
H  H3  1  0.18520000  0.42060000  0.07530000  1.0 0.2960383237
H  H4  1  0.32630000  0.40840000  0.07300000  1.0 0.2960383237
H  H5  1  0.35020000  0.80610000  0.55080000  1.0 0.1094024494
H  H6  1  0.20230000  0.80250000  0.54970000  1.0 0.2783633038
H  H7  1  0.25850000  0.57990000  0.71010000  1.0 0.1178927213
H  H8  1  0.44940000  0.47290000  0.94400000  1.0 0.1300704235
H  H9  1  0.06260000  0.46100000  0.93830000  1.0 0.1300704235
H  H10  1  0.22740000  0.76110000  0.91620000  1.0 0.1178927213
H  H11  1  0.06320000  0.78660000  0.68350000  1.0 0.1386552
H  H12  1  0.45210000  0.79850000  0.68950000  1.0 0.1300704235
H  H13  1  0.74820000  0.40430000  0.61660000  1.0 0.1010795325
H  H14  1  0.72790000  0.24780000  0.65960000  1.0 0.1300704235
H  H15  1  0.76420000  0.23670000  0.91440000  1.0 0.1386552
H  H16  1  0.78430000  0.39290000  0.86410000  1.0 0.1178927213
H  H17  1  0.65010000  0.95400000  0.99310000  1.0 0.1010795325
H  H18  1  0.65980000  0.11170000  0.94890000  1.0 0.1386552
H  H19  1  0.78760000  0.09390000  0.70690000  1.0 0.1300704235
H  H20  1  0.77380000  0.93740000  0.75840000  1.0 0.1178927213
H  H21  1  0.93840000  0.56430000  0.52900000  1.0 0.1010795325
H  H22  1  0.93790000  0.60590000  0.37620000  1.0 0.1300704235
H  H23  1  0.56100000  0.73370000  0.38590000  1.0 0.1300704235
H  H24  1  0.57260000  0.68900000  0.53800000  1.0 0.1094024494
H  H25  1  0.54850000  0.72130000  0.10300000  1.0 0.1010795325
H  H26  1  0.55270000  0.68060000  0.25840000  1.0 0.1300704235
H  H27  1  0.92810000  0.72990000  0.23310000  1.0 0.1300704235
H  H28  1  0.91420000  0.76880000  0.08100000  1.0 0.1094024494
H  H29  1  0.21610000  0.77470000  0.56030000  1.0 0.2783633038
H  H30  1  0.40820000  0.87760000  0.53350000  1.0 0.0803121132
H  H31  1  0.32560000  0.24850000  0.28080000  1.0 0.3379507229
H  H32  1  0.19060000  0.26110000  0.28370000  1.0 0.3497644827
H  H33  1  0.81480000  0.57940000  0.92470000  1.0 0.2960383237
H  H34  1  0.67370000  0.59160000  0.92700000  1.0 0.2960383237
H  H35  1  0.64980000  0.19390000  0.44920000  1.0 0.1094024494
H  H36  1  0.79770000  0.19750000  0.45030000  1.0 0.2783633038
H  H37  1  0.74150000  0.42010000  0.28990000  1.0 0.1178927213
H  H38  1  0.55060000  0.52710000  0.05600000  1.0 0.1300704235
H  H39  1  0.93740000  0.53900000  0.06170000  1.0 0.1300704235
H  H40  1  0.77260000  0.23890000  0.08380000  1.0 0.1178927213
H  H41  1  0.93680000  0.21340000  0.31650000  1.0 0.1386552
H  H42  1  0.54790000  0.20150000  0.31050000  1.0 0.1300704235
H  H43  1  0.25180000  0.59570000  0.38340000  1.0 0.1010795325
H  H44  1  0.27210000  0.75220000  0.34040000  1.0 0.1300704235
H  H45  1  0.23580000  0.76330000  0.08560000  1.0 0.1386552
H  H46  1  0.21570000  0.60710000  0.13590000  1.0 0.1178927213
H  H47  1  0.34990000  0.04600000  0.00690000  1.0 0.1010795325
H  H48  1  0.34020000  0.88830000  0.05110000  1.0 0.1386552
H  H49  1  0.21240000  0.90610000  0.29310000  1.0 0.1300704235
H  H50  1  0.22620000  0.06260000  0.24160000  1.0 0.1178927213
H  H51  1  0.06160000  0.43570000  0.47100000  1.0 0.1010795325
H  H52  1  0.06210000  0.39410000  0.62380000  1.0 0.1300704235
H  H53  1  0.43900000  0.26630000  0.61410000  1.0 0.1300704235
H  H54  1  0.42740000  0.31100000  0.46200000  1.0 0.1094024494
H  H55  1  0.45150000  0.27870000  0.89700000  1.0 0.1010795325
H  H56  1  0.44730000  0.31940000  0.74160000  1.0 0.1300704235
H  H57  1  0.07190000  0.27010000  0.76690000  1.0 0.1300704235
H  H58  1  0.08580000  0.23120000  0.91900000  1.0 0.1094024494
H  H59  1  0.78390000  0.22530000  0.43970000  1.0 0.2783633038
H  H60  1  0.59180000  0.12240000  0.46650000  1.0 0.0803121132
C  C1  1  0.01240000  0.54670000  0.76800000  1.0 0.538097696
C  C2  1  0.14020000  0.52510000  0.81650000  1.0 -0.0103168938
C  C3  1  0.25730000  0.55070000  0.77180000  1.0 -0.1692264512
C  C4  1  0.37390000  0.53220000  0.82030000  1.0 -0.0103168938
C  C5  1  0.37210000  0.48520000  0.91190000  1.0 -0.222209534
C  C6  1  0.25600000  0.45650000  0.95620000  1.0 0.2452569768
C  C7  1  0.14100000  0.47810000  0.90860000  1.0 -0.222209534
C  C8  1  0.50180000  0.56040000  0.77400000  1.0 0.538097696
C  C9  1  0.47640000  0.77900000  0.86060000  1.0 0.5526248679
C  C10  1  0.35680000  0.78190000  0.81040000  1.0 -0.0103168938
C  C11  1  0.23510000  0.77010000  0.85480000  1.0 -0.1371700377
C  C12  1  0.12450000  0.77170000  0.80800000  1.0 0.0011353024
C  C13  1  0.13700000  0.78440000  0.71540000  1.0 -0.2147991046
C  C14  1  0.26010000  0.79360000  0.67190000  1.0 0.1852219567
C  C15  1  0.37000000  0.79240000  0.71900000  1.0 -0.2016743667
C  C16  1  0.99140000  0.76300000  0.85440000  1.0 0.5345392391
C  C17  1  0.75220000  0.36980000  0.67710000  1.0 0.0641077996
C  C18  1  0.73930000  0.27570000  0.70270000  1.0 -0.2016743667
C  C19  1  0.74340000  0.22260000  0.79280000  1.0 0.1010795325
C  C20  1  0.76090000  0.26900000  0.85330000  1.0 -0.2016743667
C  C21  1  0.77330000  0.36300000  0.82250000  1.0 0.0890840363
C  C22  1  0.68060000  0.98170000  0.93510000  1.0 0.0803121132
C  C23  1  0.68610000  0.07750000  0.90890000  1.0 -0.2016743667
C  C24  1  0.73070000  0.12180000  0.82350000  1.0 0.1010795325
C  C25  1  0.76140000  0.06700000  0.76620000  1.0 -0.17723042
C  C26  1  0.75270000  0.97260000  0.79800000  1.0 0.0715648212
C  C27  1  0.86090000  0.59810000  0.49980000  1.0 0.0641077996
C  C28  1  0.86170000  0.62290000  0.40790000  1.0 -0.1887962108
C  C29  1  0.74680000  0.67380000  0.36270000  1.0 0.1094024494
C  C30  1  0.63900000  0.69850000  0.41350000  1.0 -0.17723042
C  C31  1  0.64660000  0.67110000  0.50500000  1.0 0.0803121132
C  C32  1  0.62560000  0.72260000  0.12970000  1.0 0.0890840363
C  C33  1  0.62760000  0.69770000  0.22370000  1.0 -0.1887962108
C  C34  1  0.74240000  0.69910000  0.26350000  1.0 0.1094024494
C  C35  1  0.85000000  0.72710000  0.20840000  1.0 -0.1887962108
C  C36  1  0.84090000  0.75050000  0.11710000  1.0 0.0715648212
C  C37  1  0.35370000  0.84280000  0.51760000  1.0 0.1386552
C  C38  1  0.98760000  0.45330000  0.23200000  1.0 0.538097696
C  C39  1  0.85980000  0.47490000  0.18350000  1.0 -0.0103168938
C  C40  1  0.74270000  0.44930000  0.22820000  1.0 -0.1692264512
C  C41  1  0.62610000  0.46780000  0.17970000  1.0 -0.0103168938
C  C42  1  0.62790000  0.51480000  0.08810000  1.0 -0.222209534
C  C43  1  0.74400000  0.54350000  0.04380000  1.0 0.2452569768
C  C44  1  0.85900000  0.52190000  0.09140000  1.0 -0.222209534
C  C45  1  0.49820000  0.43960000  0.22600000  1.0 0.538097696
C  C46  1  0.52360000  0.22100000  0.13940000  1.0 0.5526248679
C  C47  1  0.64320000  0.21810000  0.18960000  1.0 -0.0103168938
C  C48  1  0.76490000  0.22990000  0.14520000  1.0 -0.1371700377
C  C49  1  0.87550000  0.22830000  0.19200000  1.0 0.0011353024
C  C50  1  0.86300000  0.21560000  0.28460000  1.0 -0.2147991046
C  C51  1  0.73990000  0.20640000  0.32810000  1.0 0.1852219567
C  C52  1  0.63000000  0.20760000  0.28100000  1.0 -0.2016743667
C  C53  1  0.00860000  0.23700000  0.14560000  1.0 0.5345392391
C  C54  1  0.24780000  0.63020000  0.32290000  1.0 0.0641077996
C  C55  1  0.26070000  0.72430000  0.29730000  1.0 -0.2016743667
C  C56  1  0.25660000  0.77740000  0.20720000  1.0 0.1010795325
C  C57  1  0.23910000  0.73100000  0.14670000  1.0 -0.2016743667
C  C58  1  0.22670000  0.63700000  0.17750000  1.0 0.0890840363
C  C59  1  0.31940000  0.01830000  0.06490000  1.0 0.0803121132
C  C60  1  0.31390000  0.92250000  0.09110000  1.0 -0.2016743667
C  C61  1  0.26930000  0.87820000  0.17650000  1.0 0.1010795325
C  C62  1  0.23860000  0.93300000  0.23380000  1.0 -0.17723042
C  C63  1  0.24730000  0.02740000  0.20200000  1.0 0.0715648212
C  C64  1  0.13910000  0.40190000  0.50020000  1.0 0.0641077996
C  C65  1  0.13830000  0.37710000  0.59210000  1.0 -0.1887962108
C  C66  1  0.25320000  0.32620000  0.63730000  1.0 0.1094024494
C  C67  1  0.36100000  0.30150000  0.58650000  1.0 -0.17723042
C  C68  1  0.35340000  0.32890000  0.49500000  1.0 0.0803121132
C  C69  1  0.37440000  0.27740000  0.87030000  1.0 0.0890840363
C  C70  1  0.37240000  0.30230000  0.77630000  1.0 -0.1887962108
C  C71  1  0.25760000  0.30090000  0.73650000  1.0 0.1094024494
C  C72  1  0.15000000  0.27290000  0.79160000  1.0 -0.1887962108
C  C73  1  0.15910000  0.24950000  0.88290000  1.0 0.0715648212
C  C74  1  0.64630000  0.15720000  0.48240000  1.0 0.1300704235
N  N1  1  0.25740000  0.40000000  0.04810000  1.0 -0.586658968
N  N2  1  0.27240000  0.80180000  0.57890000  1.0 -0.2978502646
N  N3  1  0.77020000  0.41310000  0.73570000  1.0 -0.2377796549
N  N4  1  0.71560000  0.92700000  0.88320000  1.0 -0.2377796549
N  N5  1  0.75550000  0.61960000  0.54930000  1.0 -0.2377796549
N  N6  1  0.73030000  0.74800000  0.07780000  1.0 -0.2377796549
N  N7  1  0.74260000  0.60000000  0.95190000  1.0 -0.586658968
N  N8  1  0.72760000  0.19820000  0.42110000  1.0 -0.2978502646
N  N9  1  0.22980000  0.58690000  0.26430000  1.0 -0.2377796549
N  N10  1  0.28440000  0.07300000  0.11680000  1.0 -0.2377796549
N  N11  1  0.24450000  0.38040000  0.45070000  1.0 -0.2377796549
N  N12  1  0.26970000  0.25200000  0.92220000  1.0 -0.2377796549
O  O1  1  0.90700000  0.53780000  0.81535000  1.0 -0.551263912
O  O2  1  0.01190000  0.57170000  0.68410000  1.0 -0.5810313657
O  O3  1  0.51400000  0.58050000  0.69031000  1.0 -0.5682290926
O  O4  1  0.59480000  0.56010000  0.82148000  1.0 -0.551263912
O  O5  1  0.58470000  0.79060000  0.81530000  1.0 -0.540297015
O  O6  1  0.47040000  0.76580000  0.94340000  1.0 -0.5682290926
O  O7  1  0.97860000  0.75840000  0.93510000  1.0 -0.551263912
O  O8  1  0.89550000  0.76210000  0.81000000  1.0 -0.540297015
O  O9  1  0.74260000  0.73580000  0.69020000  1.0 -0.6639744475
O  O10  1  0.36460000  0.83970000  0.44140000  1.0 -0.4008360341
O  O11  1  0.09300000  0.46220000  0.18465000  1.0 -0.551263912
O  O12  1  0.98810000  0.42830000  0.31590000  1.0 -0.5810313657
O  O13  1  0.48600000  0.41950000  0.30969000  1.0 -0.5682290926
O  O14  1  0.40520000  0.43990000  0.17852000  1.0 -0.551263912
O  O15  1  0.41530000  0.20940000  0.18470000  1.0 -0.540297015
O  O16  1  0.52960000  0.23420000  0.05660000  1.0 -0.5682290926
O  O17  1  0.02140000  0.24160000  0.06490000  1.0 -0.551263912
O  O18  1  0.10450000  0.23790000  0.19000000  1.0 -0.540297015
O  O19  1  0.25740000  0.26420000  0.30980000  1.0 -0.6665758326
O  O20  1  0.63540000  0.16030000  0.55860000  1.0 -0.4008360341
