# DDEC6 charges by PACMAN v1.1 (https://github.com/mtap-research/PACMAN-charge/)
data_WIGHAY_FSR_pacman
_symmetry_space_group_name_H-M   'P 1'
_cell_length_a   15.78690000
_cell_length_b   15.78690000
_cell_length_c   14.24150000
_cell_angle_alpha   82.61150000
_cell_angle_beta   97.38850000
_cell_angle_gamma   137.09100000
_symmetry_Int_Tables_number   1
_chemical_formula_structural   CoH20C19N3O4
_chemical_formula_sum   'Co4 H80 C76 N12 O16'
_cell_volume   2393.35019059
_cell_formula_units_Z   4
loop_
 _symmetry_equiv_pos_site_id
 _symmetry_equiv_pos_as_xyz
  1  'x, y, z'
loop_
 _atom_site_type_symbol
 _atom_site_label
 _atom_site_symmetry_multiplicity
 _atom_site_fract_x
 _atom_site_fract_y
 _atom_site_fract_z
 _atom_site_occupancy
 _atom_site_charge
Co  Co1  1  0.02217000  0.60331000  0.72980000  1.0 0.8366512758
Co  Co2  1  0.41725000  0.99847000  0.21765000  1.0 0.8366512758
Co  Co3  1  0.60331000  0.02217000  0.27020000  1.0 0.8366512758
Co  Co4  1  0.99847000  0.41725000  0.78235000  1.0 0.8366512758
H  H1  1  0.91790000  0.81170000  0.54720000  1.0 0.1379888075
H  H2  1  0.88670000  0.65290000  0.62140000  1.0 0.1303843766
H  H3  1  0.24000000  0.88140000  0.69130000  1.0 0.1303843766
H  H4  1  0.28280000  0.05000000  0.62200000  1.0 0.1379888075
H  H5  1  0.45890000  0.36390000  0.62170000  1.0 0.1207168964
H  H6  1  0.66350000  0.55570000  0.58440000  1.0 0.1097472593
H  H7  1  0.19670000  0.09450000  0.05060000  1.0 0.1379888075
H  H8  1  0.36040000  0.13140000  0.11390000  1.0 0.1303843766
H  H9  1  0.14120000  0.77940000  0.18150000  1.0 0.1303843766
H  H10  1  0.97340000  0.73360000  0.12150000  1.0 0.1379888075
H  H11  1  0.36420000  0.43780000  0.87270000  1.0 0.0993259884
H  H12  1  0.56050000  0.64650000  0.87660000  1.0 0.1303843766
H  H13  1  0.31240000  0.56820000  0.39050000  1.0 0.0993259884
H  H14  1  0.40070000  0.68670000  0.45140000  1.0 0.0993259884
H  H15  1  0.28330000  0.56750000  0.57480000  1.0 0.1097472593
H  H16  1  0.19330000  0.44930000  0.51320000  1.0 0.0993259884
H  H17  1  0.06430000  0.46450000  0.47030000  1.0 0.1097472593
H  H18  1  0.10010000  0.48310000  0.32940000  1.0 0.1097472593
H  H19  1  0.20150000  0.56270000  0.25360000  1.0 0.1379888075
H  H20  1  0.12500000  0.58840000  0.26710000  1.0 0.1207168964
H  H21  1  0.03870000  0.58630000  0.37690000  1.0 0.1207168964
H  H22  1  0.14350000  0.73230000  0.37440000  1.0 0.1303843766
H  H23  1  0.06830000  0.65510000  0.46580000  1.0 0.1303843766
H  H24  1  0.35800000  0.77600000  0.53240000  1.0 0.1303843766
H  H25  1  0.25790000  0.76710000  0.55800000  1.0 0.1303843766
H  H26  1  0.33310000  0.84430000  0.46670000  1.0 0.1303843766
H  H27  1  0.89320000  0.40620000  0.22380000  1.0 0.1097472593
H  H28  1  0.92600000  0.52780000  0.20260000  1.0 0.0993259884
H  H29  1  0.04700000  0.56660000  0.10080000  1.0 0.0993259884
H  H30  1  0.95660000  0.42400000  0.08550000  1.0 0.1097472593
H  H31  1  0.91690000  0.56890000  0.01440000  1.0 0.0993259884
H  H32  1  0.76900000  0.51420000  0.15290000  1.0 0.1207168964
H  H33  1  0.71610000  0.42230000  0.24260000  1.0 0.1379888075
H  H34  1  0.63010000  0.38210000  0.15050000  1.0 0.1207168964
H  H35  1  0.60220000  0.34380000  0.98780000  1.0 0.1303843766
H  H36  1  0.70200000  0.42880000  0.91070000  1.0 0.1379888075
H  H37  1  0.72130000  0.48570000  0.00380000  1.0 0.1097472593
H  H38  1  0.62370000  0.19790000  0.99890000  1.0 0.1303843766
H  H39  1  0.75580000  0.25240000  0.02060000  1.0 0.1303843766
H  H40  1  0.72320000  0.28120000  0.92150000  1.0 0.1303843766
H  H41  1  0.81170000  0.91790000  0.45280000  1.0 0.1379888075
H  H42  1  0.65290000  0.88670000  0.37860000  1.0 0.1303843766
H  H43  1  0.88140000  0.24000000  0.30870000  1.0 0.1303843766
H  H44  1  0.05000000  0.28280000  0.37800000  1.0 0.1379888075
H  H45  1  0.36390000  0.45890000  0.37830000  1.0 0.1207168964
H  H46  1  0.55570000  0.66350000  0.41560000  1.0 0.1097472593
H  H47  1  0.09450000  0.19670000  0.94940000  1.0 0.1379888075
H  H48  1  0.13140000  0.36040000  0.88610000  1.0 0.1303843766
H  H49  1  0.77940000  0.14120000  0.81850000  1.0 0.1303843766
H  H50  1  0.73360000  0.97340000  0.87850000  1.0 0.1379888075
H  H51  1  0.43780000  0.36420000  0.12730000  1.0 0.0993259884
H  H52  1  0.64650000  0.56050000  0.12340000  1.0 0.1303843766
H  H53  1  0.56820000  0.31240000  0.60950000  1.0 0.0993259884
H  H54  1  0.68670000  0.40070000  0.54860000  1.0 0.0993259884
H  H55  1  0.56750000  0.28330000  0.42520000  1.0 0.1097472593
H  H56  1  0.44930000  0.19330000  0.48680000  1.0 0.0993259884
H  H57  1  0.46450000  0.06430000  0.52970000  1.0 0.1097472593
H  H58  1  0.48310000  0.10010000  0.67060000  1.0 0.1097472593
H  H59  1  0.56270000  0.20150000  0.74640000  1.0 0.1379888075
H  H60  1  0.58840000  0.12500000  0.73290000  1.0 0.1207168964
H  H61  1  0.58630000  0.03870000  0.62310000  1.0 0.1207168964
H  H62  1  0.73230000  0.14350000  0.62560000  1.0 0.1303843766
H  H63  1  0.65510000  0.06830000  0.53420000  1.0 0.1303843766
H  H64  1  0.77600000  0.35800000  0.46760000  1.0 0.1303843766
H  H65  1  0.76710000  0.25790000  0.44200000  1.0 0.1303843766
H  H66  1  0.84430000  0.33310000  0.53330000  1.0 0.1303843766
H  H67  1  0.40620000  0.89320000  0.77620000  1.0 0.1097472593
H  H68  1  0.52780000  0.92600000  0.79740000  1.0 0.0993259884
H  H69  1  0.56660000  0.04700000  0.89920000  1.0 0.0993259884
H  H70  1  0.42400000  0.95660000  0.91450000  1.0 0.1097472593
H  H71  1  0.56890000  0.91690000  0.98560000  1.0 0.0993259884
H  H72  1  0.51420000  0.76900000  0.84710000  1.0 0.1207168964
H  H73  1  0.42230000  0.71610000  0.75740000  1.0 0.1379888075
H  H74  1  0.38210000  0.63010000  0.84950000  1.0 0.1207168964
H  H75  1  0.34380000  0.60220000  0.01220000  1.0 0.1303843766
H  H76  1  0.42880000  0.70200000  0.08930000  1.0 0.1379888075
H  H77  1  0.48570000  0.72130000  0.99620000  1.0 0.1097472593
H  H78  1  0.19790000  0.62370000  0.00110000  1.0 0.1303843766
H  H79  1  0.25240000  0.75580000  0.97940000  1.0 0.1303843766
H  H80  1  0.28120000  0.72320000  0.07850000  1.0 0.1303843766
C  C1  1  0.13050000  0.05790000  0.53680000  1.0 0.3648284776
C  C2  1  0.10610000  0.95010000  0.57990000  1.0 0.0683153187
C  C3  1  0.98410000  0.82790000  0.57720000  1.0 -0.1528599309
C  C4  1  0.96690000  0.73370000  0.62050000  1.0 0.0784107151
C  C5  1  0.17500000  0.86820000  0.66230000  1.0 0.0993259884
C  C6  1  0.20160000  0.97020000  0.62120000  1.0 -0.1528599309
C  C7  1  0.47680000  0.41720000  0.57100000  1.0 -0.1623572605
C  C8  1  0.60050000  0.54350000  0.55200000  1.0 0.0424267528
C  C9  1  0.95610000  0.88370000  0.03900000  1.0 0.3477263776
C  C10  1  0.06440000  0.91120000  0.07900000  1.0 0.060669179
C  C11  1  0.18250000  0.02830000  0.07760000  1.0 -0.1528599309
C  C12  1  0.28090000  0.04990000  0.11550000  1.0 0.0784107151
C  C13  1  0.15260000  0.84400000  0.15510000  1.0 0.0784107151
C  C14  1  0.05180000  0.81600000  0.11950000  1.0 -0.1623572605
C  C15  1  0.41990000  0.46530000  0.92470000  1.0 0.0683153187
C  C16  1  0.53940000  0.58940000  0.92540000  1.0 -0.1623572605
C  C17  1  0.26220000  0.65940000  0.37410000  1.0 0.0336990011
C  C18  1  0.31490000  0.61570000  0.43000000  1.0 -0.2122899987
C  C19  1  0.23310000  0.53330000  0.51590000  1.0 -0.1660577851
C  C20  1  0.13570000  0.53330000  0.50940000  1.0 -0.1660577851
C  C21  1  0.19910000  0.65930000  0.45150000  1.0 0.2174217058
C  C22  1  0.35700000  0.78380000  0.32290000  1.0 0.5750103397
C  C23  1  0.16280000  0.56440000  0.29890000  1.0 -0.4386868226
C  C24  1  0.08790000  0.51410000  0.60450000  1.0 0.5867775483
C  C25  1  0.10350000  0.65810000  0.41370000  1.0 -0.4564808952
C  C26  1  0.29550000  0.77150000  0.50700000  1.0 -0.465867837
C  C27  1  0.75460000  0.37380000  0.13790000  1.0 0.0499247954
C  C28  1  0.89040000  0.45340000  0.17540000  1.0 -0.2122899987
C  C29  1  0.96030000  0.48690000  0.09320000  1.0 -0.1623572605
C  C30  1  0.89580000  0.49380000  0.00870000  1.0 -0.1623572605
C  C31  1  0.75850000  0.38350000  0.02570000  1.0 0.2174217058
C  C32  1  0.66350000  0.23790000  0.17430000  1.0 0.5662994189
C  C33  1  0.71340000  0.42840000  0.17450000  1.0 -0.4386868226
C  C34  1  0.93710000  0.50630000  0.91260000  1.0 0.5965056223
C  C35  1  0.68920000  0.41280000  0.97750000  1.0 -0.4564808952
C  C36  1  0.71090000  0.26810000  0.98820000  1.0 -0.465867837
C  C37  1  0.05790000  0.13050000  0.46320000  1.0 0.365005265
C  C38  1  0.95010000  0.10610000  0.42010000  1.0 0.0683153187
C  C39  1  0.82790000  0.98410000  0.42280000  1.0 -0.1528599309
C  C40  1  0.73370000  0.96690000  0.37950000  1.0 0.0784107151
C  C41  1  0.86820000  0.17500000  0.33770000  1.0 0.0993259884
C  C42  1  0.97020000  0.20160000  0.37880000  1.0 -0.1528599309
C  C43  1  0.41720000  0.47680000  0.42900000  1.0 -0.1623572605
C  C44  1  0.54350000  0.60050000  0.44800000  1.0 0.0424267528
C  C45  1  0.88370000  0.95610000  0.96100000  1.0 0.3477263776
C  C46  1  0.91120000  0.06440000  0.92100000  1.0 0.060669179
C  C47  1  0.02830000  0.18250000  0.92240000  1.0 -0.1528599309
C  C48  1  0.04990000  0.28090000  0.88450000  1.0 0.0784107151
C  C49  1  0.84400000  0.15260000  0.84490000  1.0 0.0784107151
C  C50  1  0.81600000  0.05180000  0.88050000  1.0 -0.1623572605
C  C51  1  0.46530000  0.41990000  0.07530000  1.0 0.0683153187
C  C52  1  0.58940000  0.53940000  0.07460000  1.0 -0.1623572605
C  C53  1  0.65940000  0.26220000  0.62590000  1.0 0.0336990011
C  C54  1  0.61570000  0.31490000  0.57000000  1.0 -0.2122899987
C  C55  1  0.53330000  0.23310000  0.48410000  1.0 -0.1660577851
C  C56  1  0.53330000  0.13570000  0.49060000  1.0 -0.1660577851
C  C57  1  0.65930000  0.19910000  0.54850000  1.0 0.2174217058
C  C58  1  0.78380000  0.35700000  0.67710000  1.0 0.5750103397
C  C59  1  0.56440000  0.16280000  0.70110000  1.0 -0.4386868226
C  C60  1  0.51410000  0.08790000  0.39550000  1.0 0.5867775483
C  C61  1  0.65810000  0.10350000  0.58630000  1.0 -0.4564808952
C  C62  1  0.77150000  0.29550000  0.49300000  1.0 -0.465867837
C  C63  1  0.37380000  0.75460000  0.86210000  1.0 0.0424267528
C  C64  1  0.45340000  0.89040000  0.82460000  1.0 -0.2122899987
C  C65  1  0.48690000  0.96030000  0.90680000  1.0 -0.1623572605
C  C66  1  0.49380000  0.89580000  0.99130000  1.0 -0.1623572605
C  C67  1  0.38350000  0.75850000  0.97430000  1.0 0.2174217058
C  C68  1  0.23790000  0.66350000  0.82570000  1.0 0.5662994189
C  C69  1  0.42840000  0.71340000  0.82550000  1.0 -0.4386868226
C  C70  1  0.50630000  0.93710000  0.08740000  1.0 0.5965056223
C  C71  1  0.41280000  0.68920000  0.02250000  1.0 -0.4564808952
C  C72  1  0.26810000  0.71090000  0.01180000  1.0 -0.465867837
C  C73  1  0.26100000  0.26100000  0.50000000  1.0 0.3477263776
C  C74  1  0.39100000  0.39100000  0.50000000  1.0 0.0424267528
C  C75  1  0.75420000  0.75420000  0.00000000  1.0 0.3477263776
C  C76  1  0.62650000  0.62650000  0.00000000  1.0 0.0499247954
N  N1  1  0.24420000  0.16800000  0.54100000  1.0 -0.3903390961
N  N2  1  0.06120000  0.75340000  0.66160000  1.0 -0.2208397286
N  N3  1  0.84060000  0.76500000  0.04130000  1.0 -0.3999877694
N  N4  1  0.26890000  0.95990000  0.15470000  1.0 -0.2122899987
N  N5  1  0.16800000  0.24420000  0.45900000  1.0 -0.3903390961
N  N6  1  0.75340000  0.06120000  0.33840000  1.0 -0.2208397286
N  N7  1  0.76500000  0.84060000  0.95870000  1.0 -0.3999877694
N  N8  1  0.95990000  0.26890000  0.84530000  1.0 -0.2122899987
N  N9  1  0.03280000  0.03280000  0.50000000  1.0 -0.3999877694
N  N10  1  0.64400000  0.64400000  0.50000000  1.0 -0.3285725313
N  N11  1  0.98270000  0.98270000  0.00000000  1.0 -0.3999877694
N  N12  1  0.38700000  0.38700000  0.00000000  1.0 -0.2755662995
O  O1  1  0.32030000  0.82750000  0.27610000  1.0 -0.5612083671
O  O2  1  0.47080000  0.84580000  0.33010000  1.0 -0.547968586
O  O3  1  0.07260000  0.57900000  0.61970000  1.0 -0.5612083671
O  O4  1  0.06290000  0.43230000  0.66080000  1.0 -0.5200025635
O  O5  1  0.55020000  0.17680000  0.16750000  1.0 -0.538816263
O  O6  1  0.70490000  0.19730000  0.21010000  1.0 -0.547968586
O  O7  1  0.95630000  0.58330000  0.85140000  1.0 -0.538816263
O  O8  1  0.95450000  0.44270000  0.89980000  1.0 -0.5612083671
O  O9  1  0.82750000  0.32030000  0.72390000  1.0 -0.5612083671
O  O10  1  0.84580000  0.47080000  0.66990000  1.0 -0.547968586
O  O11  1  0.57900000  0.07260000  0.38030000  1.0 -0.5612083671
O  O12  1  0.43230000  0.06290000  0.33920000  1.0 -0.5200025635
O  O13  1  0.17680000  0.55020000  0.83250000  1.0 -0.538816263
O  O14  1  0.19730000  0.70490000  0.78990000  1.0 -0.547968586
O  O15  1  0.58330000  0.95630000  0.14860000  1.0 -0.538816263
O  O16  1  0.44270000  0.95450000  0.10020000  1.0 -0.5612083671
