# DDEC6 charges by PACMAN v1.1 (https://github.com/mtap-research/PACMAN-charge/)
data_WIGHEC_ASR_pacman
_symmetry_space_group_name_H-M   'P 1'
_cell_length_a   13.27300000
_cell_length_b   13.37500000
_cell_length_c   14.96700000
_cell_angle_alpha   94.64100000
_cell_angle_beta   113.49400000
_cell_angle_gamma   91.14300000
_symmetry_Int_Tables_number   1
_chemical_formula_structural   Co4H61C76(N3O4)4
_chemical_formula_sum   'Co4 H61 C76 N12 O16'
_cell_volume   2424.82011285
_cell_formula_units_Z   1
loop_
 _symmetry_equiv_pos_site_id
 _symmetry_equiv_pos_as_xyz
  1  'x, y, z'
loop_
 _atom_site_type_symbol
 _atom_site_label
 _atom_site_symmetry_multiplicity
 _atom_site_fract_x
 _atom_site_fract_y
 _atom_site_fract_z
 _atom_site_occupancy
 _atom_site_charge
Co  Co1  1  0.38805000  0.52882000  0.40617000  1.0 0.8939625048
Co  Co2  1  0.52905000  0.56024000  0.60072000  1.0 0.84328902
Co  Co3  1  0.92554000  0.04304000  0.40146000  1.0 0.8841602229
Co  Co4  1  0.99266000  0.04729000  0.60817000  1.0 0.8453357839
H  H1  1  0.00280000  0.57090000  0.17900000  1.0 0.1385815123
H  H2  1  0.13740000  0.51540000  0.30540000  1.0 0.1202056816
H  H3  1  0.35580000  0.64980000  0.23020000  1.0 0.1297465576
H  H4  1  0.21380000  0.71070000  0.10480000  1.0 0.1297465576
H  H5  1  0.11660000  0.82610000  0.88540000  1.0 0.1385815123
H  H6  1  0.13780000  0.93650000  0.78320000  1.0 0.1202056816
H  H7  1  0.82090000  0.96630000  0.66110000  1.0 0.1202056816
H  H8  1  0.79080000  0.85870000  0.76460000  1.0 0.1385815123
H  H9  1  0.62650000  0.72750000  0.82260000  1.0 0.1385815123
H  H10  1  0.45540000  0.67800000  0.80230000  1.0 0.1297465576
H  H11  1  0.55930000  0.57040000  0.04680000  1.0 0.1202056816
H  H12  1  0.73730000  0.62070000  0.07770000  1.0 0.1491239392
H  H13  1  0.92040000  0.51080000  0.82120000  1.0 0.1385815123
H  H14  1  0.77070000  0.57570000  0.69870000  1.0 0.1202056816
H  H15  1  0.56190000  0.44230000  0.77010000  1.0 0.1202056816
H  H16  1  0.69410000  0.38410000  0.90540000  1.0 0.1385815123
H  H17  1  0.79870000  0.25080000  0.11230000  1.0 0.1297465576
H  H18  1  0.78360000  0.15640000  0.22860000  1.0 0.1297465576
H  H19  1  0.09560000  0.12750000  0.34140000  1.0 0.1297465576
H  H20  1  0.11910000  0.22730000  0.23530000  1.0 0.1385815123
H  H21  1  0.29040000  0.35020000  0.18300000  1.0 0.1385815123
H  H22  1  0.46660000  0.40360000  0.20740000  1.0 0.1202056816
H  H23  1  0.35540000  0.51210000  0.94940000  1.0 0.1014282083
H  H24  1  0.17650000  0.47560000  0.92380000  1.0 0.1297465576
H  H25  1  0.81470000  0.67360000  0.57040000  1.0 0.089110943
H  H26  1  0.84920000  0.57030000  0.53480000  1.0 0.1014282083
H  H27  1  0.95210000  0.73970000  0.53230000  1.0 0.1095112759
H  H28  1  0.94220000  0.64720000  0.45650000  1.0 0.1014282083
H  H29  1  0.67580000  0.80150000  0.27030000  1.0 0.1297465576
H  H30  1  0.71880000  0.69400000  0.26380000  1.0 0.1014282083
H  H31  1  0.59850000  0.70610000  0.25620000  1.0 0.1297465576
H  H32  1  0.69040000  0.87320000  0.45260000  1.0 0.1385815123
H  H33  1  0.61130000  0.78900000  0.46050000  1.0 0.1385815123
H  H34  1  0.73520000  0.79930000  0.53410000  1.0 0.1202056816
H  H35  1  0.76580000  0.57010000  0.31690000  1.0 0.1095112759
H  H36  1  0.71250000  0.48480000  0.35260000  1.0 0.1385815123
H  H37  1  0.63740000  0.55570000  0.27810000  1.0 0.1202056816
H  H38  1  0.55350000  0.94340000  0.60980000  1.0 0.1385815123
H  H39  1  0.54310000  0.87610000  0.69050000  1.0 0.1491239392
H  H40  1  0.33830000  0.98380000  0.68700000  1.0 0.1297465576
H  H41  1  0.37300000  0.07020000  0.63700000  1.0 0.1385815123
H  H42  1  0.27810000  0.99440000  0.48420000  1.0 0.1202056816
H  H43  1  0.01910000  0.34340000  0.44780000  1.0 0.1014282083
H  H44  1  0.94800000  0.40110000  0.49670000  1.0 0.1095112759
H  H45  1  0.09560000  0.50030000  0.45930000  1.0 0.1095112759
H  H46  1  0.06610000  0.53890000  0.54750000  1.0 0.1014282083
H  H47  1  0.22540000  0.50970000  0.65250000  1.0 0.1014282083
H  H48  1  0.29090000  0.27530000  0.73470000  1.0 0.1385815123
H  H49  1  0.36800000  0.35880000  0.72280000  1.0 0.1297465576
H  H50  1  0.28450000  0.38780000  0.76950000  1.0 0.1202056816
H  H51  1  0.18080000  0.29030000  0.47970000  1.0 0.1297465576
H  H52  1  0.30640000  0.29970000  0.54860000  1.0 0.1385815123
H  H53  1  0.22940000  0.21600000  0.56030000  1.0 0.1297465576
H  H54  1  0.97630000  0.37850000  0.65910000  1.0 0.1385815123
H  H55  1  0.09580000  0.37680000  0.74010000  1.0 0.1385815123
H  H56  1  0.06340000  0.46610000  0.67410000  1.0 0.1202056816
H  H57  1  0.48080000  0.17580000  0.56270000  1.0 0.1014282083
H  H58  1  0.58010000  0.25680000  0.61040000  1.0 0.1095112759
H  H59  1  0.59490000  0.05620000  0.55830000  1.0 0.089110943
H  H60  1  0.69470000  0.13390000  0.61790000  1.0 0.1014282083
H  H61  1  0.60180000  0.07970000  0.41470000  1.0 0.1297465576
C  C1  1  0.00280000  0.68520000  0.04510000  1.0 0.3768388056
C  C2  1  0.93680000  0.77350000  0.91410000  1.0 0.3592843138
C  C3  1  0.81470000  0.70130000  0.96630000  1.0 0.3592843138
C  C4  1  0.09470000  0.64880000  0.13030000  1.0 0.0495389549
C  C5  1  0.07520000  0.58870000  0.19030000  1.0 -0.1601961471
C  C6  1  0.15520000  0.55420000  0.26440000  1.0 0.0495389549
C  C7  1  0.28370000  0.63350000  0.22130000  1.0 0.0808613646
C  C8  1  0.19830000  0.67010000  0.14580000  1.0 -0.1539218701
C  C9  1  0.95420000  0.83490000  0.84390000  1.0 0.0495389549
C  C10  1  0.05530000  0.85560000  0.84280000  1.0 -0.1601961471
C  C11  1  0.06770000  0.91970000  0.77910000  1.0 0.0808613646
C  C12  1  0.88050000  0.93790000  0.70720000  1.0 0.1095112759
C  C13  1  0.86190000  0.87440000  0.77060000  1.0 -0.1601961471
C  C14  1  0.70410000  0.67890000  0.95470000  1.0 0.0495389549
C  C15  1  0.61560000  0.69690000  0.87190000  1.0 -0.1724459506
C  C16  1  0.51390000  0.67080000  0.86150000  1.0 0.0495389549
C  C17  1  0.57240000  0.60900000  0.00310000  1.0 0.089110943
C  C18  1  0.68070000  0.63480000  0.01980000  1.0 -0.1994973845
C  C19  1  0.92050000  0.39950000  0.96150000  1.0 0.3452544533
C  C20  1  0.98070000  0.31520000  0.09510000  1.0 0.365328642
C  C21  1  0.09750000  0.38500000  0.04110000  1.0 0.3592843138
C  C22  1  0.82610000  0.44050000  0.88130000  1.0 0.0726394639
C  C23  1  0.84880000  0.49770000  0.81540000  1.0 -0.1806450711
C  C24  1  0.75690000  0.53420000  0.73990000  1.0 0.1014282083
C  C25  1  0.63540000  0.45810000  0.78350000  1.0 0.0808613646
C  C26  1  0.71390000  0.42080000  0.86400000  1.0 -0.19011387
C  C27  1  0.96440000  0.25250000  0.16800000  1.0 0.0601874678
C  C28  1  0.86080000  0.22840000  0.16080000  1.0 -0.1724459506
C  C29  1  0.85320000  0.16890000  0.22950000  1.0 0.0726394639
C  C30  1  0.03370000  0.15330000  0.29560000  1.0 0.0601874678
C  C31  1  0.04880000  0.21370000  0.23240000  1.0 -0.1539218701
C  C32  1  0.21360000  0.40960000  0.05430000  1.0 0.0601874678
C  C33  1  0.30190000  0.38670000  0.13720000  1.0 -0.1601961471
C  C34  1  0.40840000  0.41920000  0.15110000  1.0 0.1014282083
C  C35  1  0.34050000  0.48490000  0.99840000  1.0 0.0307088564
C  C36  1  0.23390000  0.46040000  0.98070000  1.0 -0.1806450711
C  C37  1  0.70760000  0.62490000  0.41920000  1.0 0.0307088564
C  C38  1  0.82260000  0.63560000  0.51580000  1.0 -0.19011387
C  C39  1  0.90070000  0.69390000  0.47950000  1.0 -0.1994973845
C  C40  1  0.82660000  0.75220000  0.39570000  1.0 -0.0114147426
C  C41  1  0.86680000  0.86350000  0.41670000  1.0 0.5707385563
C  C42  1  0.71440000  0.73390000  0.39880000  1.0 0.1781507157
C  C43  1  0.67290000  0.73390000  0.28670000  1.0 -0.4063825436
C  C44  1  0.68510000  0.80540000  0.46790000  1.0 -0.4598964529
C  C45  1  0.61480000  0.59750000  0.44550000  1.0 0.578781011
C  C46  1  0.70560000  0.55200000  0.33370000  1.0 -0.4443339683
C  C47  1  0.40290000  0.84030000  0.54580000  1.0 0.0196196776
C  C48  1  0.50390000  0.90870000  0.63170000  1.0 -0.3592314399
C  C49  1  0.35730000  0.99850000  0.63300000  1.0 -0.331852851
C  C50  1  0.26710000  0.96030000  0.53540000  1.0 -0.0974556408
C  C51  1  0.14910000  0.98940000  0.53600000  1.0 0.578781011
C  C52  1  0.27410000  0.84820000  0.51500000  1.0 0.0601874678
C  C53  1  0.20790000  0.81670000  0.40360000  1.0 0.1297465576
C  C54  1  0.19870000  0.77600000  0.49390000  1.0 -0.2139829374
C  C55  1  0.43850000  0.73680000  0.55050000  1.0 0.5605388307
C  C56  1  0.40790000  0.88640000  0.46190000  1.0 -0.004818368
C  C57  1  0.08790000  0.33930000  0.60340000  1.0 0.0495389549
C  C58  1  0.02210000  0.38650000  0.50420000  1.0 -0.19011387
C  C59  1  0.09500000  0.48350000  0.52090000  1.0 -0.1724459506
C  C60  1  0.21230000  0.46580000  0.59280000  1.0 -0.1724459506
C  C61  1  0.30890000  0.49310000  0.56190000  1.0 0.59967077
C  C62  1  0.20920000  0.35820000  0.61990000  1.0 0.2132680141
C  C63  1  0.29620000  0.34370000  0.72110000  1.0 -0.4598964529
C  C64  1  0.23390000  0.28380000  0.54480000  1.0 -0.4598964529
C  C65  1  0.05050000  0.22730000  0.59770000  1.0 0.5343111776
C  C66  1  0.05270000  0.39520000  0.67560000  1.0 -0.4297369398
C  C67  1  0.51470000  0.24680000  0.45750000  1.0 0.0307088564
C  C68  1  0.54550000  0.20450000  0.55720000  1.0 -0.1806450711
C  C69  1  0.62730000  0.12210000  0.55930000  1.0 -0.1601961471
C  C70  1  0.65160000  0.12890000  0.46640000  1.0 -0.1394753284
C  C71  1  0.76510000  0.10480000  0.48470000  1.0 0.59967077
C  C72  1  0.61880000  0.23650000  0.43520000  1.0 0.0307088564
C  C73  1  0.60440000  0.24920000  0.33400000  1.0 0.0380505682
C  C74  1  0.69280000  0.30690000  0.45930000  1.0 -0.0611445732
C  C75  1  0.47980000  0.35720000  0.45640000  1.0 0.5413848185
C  C76  1  0.47060000  0.18050000  0.36850000  1.0 -0.085644146
N  N1  1  0.02420000  0.73670000  0.98290000  1.0 -0.4030938126
N  N2  1  0.83110000  0.75590000  0.89960000  1.0 -0.4063825436
N  N3  1  0.89820000  0.66480000  0.03870000  1.0 -0.4030938126
N  N4  1  0.26490000  0.57380000  0.28330000  1.0 -0.231954915
N  N5  1  0.98060000  0.95810000  0.71190000  1.0 -0.2238392733
N  N6  1  0.49360000  0.63450000  0.93380000  1.0 -0.2455349542
N  N7  1  0.89390000  0.34750000  0.02430000  1.0 -0.3875403679
N  N8  1  0.08510000  0.33150000  0.10590000  1.0 -0.3724367298
N  N9  1  0.01670000  0.42050000  0.96540000  1.0 -0.3826057292
N  N10  1  0.65660000  0.51410000  0.72470000  1.0 -0.2238392733
N  N11  1  0.93610000  0.12850000  0.29620000  1.0 -0.231954915
N  N12  1  0.43140000  0.47110000  0.08870000  1.0 -0.2935576416
O  O1  1  0.51570000  0.57840000  0.37600000  1.0 -0.5763058639
O  O2  1  0.63600000  0.59420000  0.53350000  1.0 -0.5506581045
O  O3  1  0.85440000  0.90430000  0.33620000  1.0 -0.5440410949
O  O4  1  0.91560000  0.92070000  0.50580000  1.0 -0.6711086608
O  O5  1  0.13150000  0.99250000  0.60460000  1.0 -0.4152576304
O  O6  1  0.07960000  0.00280000  0.44420000  1.0 -0.5957489587
O  O7  1  0.50890000  0.70510000  0.62910000  1.0 -0.5440410949
O  O8  1  0.39300000  0.67280000  0.47240000  1.0 -0.5666151024
O  O9  1  0.01270000  0.18290000  0.51770000  1.0 -0.5004944033
O  O10  1  0.06250000  0.18590000  0.67270000  1.0 -0.5004944033
O  O11  1  0.39740000  0.51530000  0.62730000  1.0 -0.5188774444
O  O12  1  0.28640000  0.49420000  0.47090000  1.0 -0.5666151024
O  O13  1  0.51480000  0.41090000  0.53450000  1.0 -0.5506581045
O  O14  1  0.41390000  0.38110000  0.37710000  1.0 -0.4918023325
O  O15  1  0.78590000  0.09480000  0.40430000  1.0 -0.5763058639
O  O16  1  0.83290000  0.09040000  0.56460000  1.0 -0.5266804076
