# DDEC6 charges by PACMAN v1.1 (https://github.com/mtap-research/PACMAN-charge/)
data_WIHQEM_FSR_pacman
_symmetry_space_group_name_H-M   'P 1'
_cell_length_a   6.83030000
_cell_length_b   6.83300000
_cell_length_c   16.43760000
_cell_angle_alpha   89.95200000
_cell_angle_beta   89.99100000
_cell_angle_gamma   89.98000000
_symmetry_Int_Tables_number   1
_chemical_formula_structural   CuH2C4(SN)2
_chemical_formula_sum   'Cu4 H8 C16 S8 N8'
_cell_volume   767.16613512
_cell_formula_units_Z   4
loop_
 _symmetry_equiv_pos_site_id
 _symmetry_equiv_pos_as_xyz
  1  'x, y, z'
loop_
 _atom_site_type_symbol
 _atom_site_label
 _atom_site_symmetry_multiplicity
 _atom_site_fract_x
 _atom_site_fract_y
 _atom_site_fract_z
 _atom_site_occupancy
 _atom_site_charge
Cu  Cu1  1  0.49996000  0.99981000  0.74997000  1.0 0.5680287428
Cu  Cu2  1  0.50004000  0.00019000  0.25003000  1.0 0.5680287428
Cu  Cu3  1  0.50000000  0.50000000  0.50000000  1.0 0.3145924456
Cu  Cu4  1  0.00000000  0.00000000  0.00000000  1.0 0.3173914499
H  H1  1  0.49780000  0.33190000  0.87650000  1.0 0.1166540518
H  H2  1  0.50240000  0.66790000  0.87680000  1.0 0.1166540518
H  H3  1  0.16710000  0.99990000  0.62330000  1.0 0.1166540518
H  H4  1  0.83360000  0.99990000  0.62300000  1.0 0.1166540518
H  H5  1  0.50220000  0.66810000  0.12350000  1.0 0.1166540518
H  H6  1  0.49760000  0.33210000  0.12320000  1.0 0.1166540518
H  H7  1  0.83290000  0.00010000  0.37670000  1.0 0.1166540518
H  H8  1  0.16640000  0.00010000  0.37700000  1.0 0.1166540518
C  C1  1  0.49920000  0.39910000  0.82720000  1.0 0.021166902
C  C2  1  0.50060000  0.60120000  0.82760000  1.0 0.021166902
C  C3  1  0.10030000  0.00020000  0.67260000  1.0 0.0136040397
C  C4  1  0.90020000  0.00010000  0.67240000  1.0 0.0136040397
C  C5  1  0.10560000  0.99960000  0.81380000  1.0 0.163797608
C  C6  1  0.89400000  0.00030000  0.81390000  1.0 0.163797608
C  C7  1  0.49960000  0.60560000  0.68600000  1.0 0.163797608
C  C8  1  0.50000000  0.39540000  0.68640000  1.0 0.163797608
C  C9  1  0.50080000  0.60090000  0.17280000  1.0 0.021166902
C  C10  1  0.49940000  0.39880000  0.17240000  1.0 0.021166902
C  C11  1  0.89970000  0.99980000  0.32740000  1.0 0.021166902
C  C12  1  0.09980000  0.99990000  0.32760000  1.0 0.0136040397
C  C13  1  0.89440000  0.00040000  0.18620000  1.0 0.163797608
C  C14  1  0.10600000  0.99970000  0.18610000  1.0 0.163797608
C  C15  1  0.50040000  0.39440000  0.31400000  1.0 0.163797608
C  C16  1  0.50000000  0.60460000  0.31360000  1.0 0.163797608
S  S1  1  0.23591000  0.99967000  0.90303000  1.0 -0.2908285958
S  S2  1  0.76432000  0.99963000  0.90322000  1.0 -0.2908285958
S  S3  1  0.50029000  0.26423000  0.59678000  1.0 -0.2967149668
S  S4  1  0.49982000  0.73573000  0.59687000  1.0 -0.2908285958
S  S5  1  0.76409000  0.00033000  0.09697000  1.0 -0.2908285958
S  S6  1  0.23568000  0.00037000  0.09678000  1.0 -0.2908285958
S  S7  1  0.49971000  0.73577000  0.40322000  1.0 -0.2967149668
S  S8  1  0.50018000  0.26427000  0.40313000  1.0 -0.2908285958
N  N1  1  0.49920000  0.70350000  0.75670000  1.0 -0.2274874725
N  N2  1  0.49990000  0.29650000  0.75684000  1.0 -0.2274874725
N  N3  1  0.79640000  0.00020000  0.74322000  1.0 -0.2274874725
N  N4  1  0.20380000  0.00080000  0.74330000  1.0 -0.2274874725
N  N5  1  0.50080000  0.29650000  0.24330000  1.0 -0.2274874725
N  N6  1  0.50010000  0.70350000  0.24316000  1.0 -0.2274874725
N  N7  1  0.20360000  0.99980000  0.25678000  1.0 -0.2274874725
N  N8  1  0.79620000  0.99920000  0.25670000  1.0 -0.2274874725
