# DDEC6 charges by PACMAN v1.1 (https://github.com/mtap-research/PACMAN-charge/)
data_WIKLOT_FSR_pacman
_symmetry_space_group_name_H-M   'P 1'
_cell_length_a   14.02030000
_cell_length_b   14.02030000
_cell_length_c   13.45330000
_cell_angle_alpha   86.69280000
_cell_angle_beta   93.30720000
_cell_angle_gamma   130.78100000
_symmetry_Int_Tables_number   1
_chemical_formula_structural   UP3H9C3O11
_chemical_formula_sum   'U4 P12 H36 C12 O44'
_cell_volume   1998.41043823
_cell_formula_units_Z   4
loop_
 _symmetry_equiv_pos_site_id
 _symmetry_equiv_pos_as_xyz
  1  'x, y, z'
loop_
 _atom_site_type_symbol
 _atom_site_label
 _atom_site_symmetry_multiplicity
 _atom_site_fract_x
 _atom_site_fract_y
 _atom_site_fract_z
 _atom_site_occupancy
 _atom_site_charge
U  U1  1  0.64212000  0.25640000  0.94503000  1.0 2.5940040987
U  U2  1  0.25640000  0.64212000  0.55497000  1.0 2.5940040987
U  U3  1  0.35788000  0.74360000  0.05497000  1.0 2.5940040987
U  U4  1  0.74360000  0.35788000  0.44503000  1.0 2.5952927512
P  P1  1  0.56374000  0.23634000  0.67779000  1.0 1.3715480011
P  P2  1  0.23634000  0.56374000  0.82221000  1.0 1.3715480011
P  P3  1  0.43626000  0.76366000  0.32221000  1.0 1.3715480011
P  P4  1  0.76366000  0.43626000  0.17779000  1.0 1.3715480011
P  P5  1  0.47452000  0.95484000  0.83932000  1.0 1.3858413142
P  P6  1  0.95484000  0.47452000  0.66068000  1.0 1.3858413142
P  P7  1  0.52548000  0.04516000  0.16068000  1.0 1.3858413142
P  P8  1  0.04516000  0.52548000  0.33932000  1.0 1.3858413142
P  P9  1  0.58499000  0.47543000  0.87992000  1.0 1.3295102757
P  P10  1  0.47543000  0.58499000  0.62008000  1.0 1.3295102757
P  P11  1  0.41501000  0.52457000  0.12008000  1.0 1.3295102757
P  P12  1  0.52457000  0.41501000  0.37992000  1.0 1.3295102757
H  H1  1  0.47310000  0.28610000  0.73470000  1.0 0.3852432114
H  H2  1  0.28610000  0.47310000  0.76530000  1.0 0.3852432114
H  H3  1  0.52690000  0.71390000  0.26530000  1.0 0.3852432114
H  H4  1  0.71390000  0.52690000  0.23470000  1.0 0.3852432114
H  H5  1  0.44900000  0.81740000  0.76740000  1.0 0.4023572844
H  H6  1  0.81740000  0.44900000  0.73260000  1.0 0.4023572844
H  H7  1  0.55100000  0.18260000  0.23260000  1.0 0.4023572844
H  H8  1  0.18260000  0.55100000  0.26740000  1.0 0.4023572844
H  H9  1  0.45320000  0.42500000  0.77740000  1.0 0.3173615378
H  H10  1  0.42500000  0.45320000  0.72260000  1.0 0.3173615378
H  H11  1  0.54680000  0.57500000  0.22260000  1.0 0.3173615378
H  H12  1  0.57500000  0.54680000  0.27740000  1.0 0.3173615378
H  H13  1  0.54900000  0.06700000  0.65060000  1.0 0.1687595066
H  H14  1  0.06700000  0.54900000  0.84940000  1.0 0.1687595066
H  H15  1  0.45100000  0.93300000  0.34940000  1.0 0.1687595066
H  H16  1  0.93300000  0.45100000  0.15060000  1.0 0.1687595066
H  H17  1  0.43540000  0.04800000  0.59770000  1.0 0.1763316434
H  H18  1  0.04800000  0.43540000  0.90230000  1.0 0.1763316434
H  H19  1  0.56460000  0.95200000  0.40230000  1.0 0.1763316434
H  H20  1  0.95200000  0.56460000  0.09770000  1.0 0.1763316434
H  H21  1  0.36660000  0.01680000  0.77520000  1.0 0.1596795486
H  H22  1  0.01680000  0.36660000  0.72480000  1.0 0.1596795486
H  H23  1  0.63340000  0.98320000  0.22480000  1.0 0.1596795486
H  H24  1  0.98320000  0.63340000  0.27520000  1.0 0.1596795486
H  H25  1  0.32840000  0.90300000  0.71610000  1.0 0.1687595066
H  H26  1  0.90300000  0.32840000  0.78390000  1.0 0.1687595066
H  H27  1  0.67160000  0.09700000  0.28390000  1.0 0.1687595066
H  H28  1  0.09700000  0.67160000  0.21610000  1.0 0.1687595066
H  H29  1  0.60700000  0.52320000  0.04570000  1.0 0.1596795486
H  H30  1  0.52320000  0.60700000  0.45430000  1.0 0.1596795486
H  H31  1  0.39300000  0.47680000  0.95430000  1.0 0.1596795486
H  H32  1  0.47680000  0.39300000  0.54570000  1.0 0.1596795486
H  H33  1  0.47790000  0.38790000  0.02720000  1.0 0.1596795486
H  H34  1  0.38790000  0.47790000  0.47280000  1.0 0.1596795486
H  H35  1  0.52210000  0.61210000  0.97280000  1.0 0.1596795486
H  H36  1  0.61210000  0.52210000  0.52720000  1.0 0.1596795486
C  C1  1  0.48570000  0.07410000  0.65900000  1.0 -0.4128390103
C  C2  1  0.07410000  0.48570000  0.84100000  1.0 -0.4128390103
C  C3  1  0.51430000  0.92590000  0.34100000  1.0 -0.4128390103
C  C4  1  0.92590000  0.51430000  0.15900000  1.0 -0.4128390103
C  C5  1  0.39940000  0.98300000  0.74440000  1.0 -0.4128390103
C  C6  1  0.98300000  0.39940000  0.75560000  1.0 -0.4128390103
C  C7  1  0.60060000  0.01700000  0.25560000  1.0 -0.4128390103
C  C8  1  0.01700000  0.60060000  0.24440000  1.0 -0.4160619039
C  C9  1  0.53400000  0.47380000  0.00090000  1.0 -0.4128390103
C  C10  1  0.47380000  0.53400000  0.49910000  1.0 -0.4128390103
C  C11  1  0.46600000  0.52620000  0.99910000  1.0 -0.4128390103
C  C12  1  0.52620000  0.46600000  0.50090000  1.0 -0.4128390103
O  O1  1  0.80652000  0.34128000  0.94250000  1.0 -0.6191472668
O  O2  1  0.34128000  0.80652000  0.55750000  1.0 -0.6191472668
O  O3  1  0.19348000  0.65872000  0.05750000  1.0 -0.6191472668
O  O4  1  0.65872000  0.19348000  0.44250000  1.0 -0.6191472668
O  O5  1  0.47715000  0.17045000  0.94530000  1.0 -0.6380791623
O  O6  1  0.17045000  0.47715000  0.55470000  1.0 -0.6380791623
O  O7  1  0.52285000  0.82955000  0.05470000  1.0 -0.6380791623
O  O8  1  0.82955000  0.52285000  0.44530000  1.0 -0.6380791623
O  O9  1  0.62902000  0.31438000  0.58550000  1.0 -0.8011711317
O  O10  1  0.31438000  0.62902000  0.91450000  1.0 -0.8011711317
O  O11  1  0.37098000  0.68562000  0.41450000  1.0 -0.8011711317
O  O12  1  0.68562000  0.37098000  0.08550000  1.0 -0.8011711317
O  O13  1  0.65301000  0.28599000  0.76700000  1.0 -0.8011711317
O  O14  1  0.28599000  0.65301000  0.73300000  1.0 -0.8011711317
O  O15  1  0.34699000  0.71401000  0.23300000  1.0 -0.8011711317
O  O16  1  0.71401000  0.34699000  0.26700000  1.0 -0.8011711317
O  O17  1  0.44981000  0.22999000  0.69710000  1.0 -0.5408501584
O  O18  1  0.22999000  0.44981000  0.80290000  1.0 -0.5408501584
O  O19  1  0.55019000  0.77001000  0.30290000  1.0 -0.5408501584
O  O20  1  0.77001000  0.55019000  0.19710000  1.0 -0.5408501584
O  O21  1  0.51281000  0.88759000  0.78430000  1.0 -0.5469313819
O  O22  1  0.88759000  0.51281000  0.71570000  1.0 -0.5469313819
O  O23  1  0.48719000  0.11241000  0.21570000  1.0 -0.5469313819
O  O24  1  0.11241000  0.48719000  0.28430000  1.0 -0.5469313819
O  O25  1  0.37752000  0.86708000  0.91740000  1.0 -0.80658346
O  O26  1  0.86708000  0.37752000  0.58260000  1.0 -0.80658346
O  O27  1  0.62248000  0.13292000  0.08260000  1.0 -0.8011711317
O  O28  1  0.13292000  0.62248000  0.41740000  1.0 -0.8011711317
O  O29  1  0.59599000  0.07701000  0.87600000  1.0 -0.7808258343
O  O30  1  0.07701000  0.59599000  0.62400000  1.0 -0.7808258343
O  O31  1  0.40401000  0.92299000  0.12400000  1.0 -0.7808258343
O  O32  1  0.92299000  0.40401000  0.37600000  1.0 -0.7808258343
O  O33  1  0.66357000  0.60943000  0.83410000  1.0 -0.6536243815
O  O34  1  0.60943000  0.66357000  0.66590000  1.0 -0.6536243815
O  O35  1  0.33643000  0.39057000  0.16590000  1.0 -0.6536243815
O  O36  1  0.39057000  0.33643000  0.33410000  1.0 -0.6536243815
O  O37  1  0.66116000  0.43504000  0.89320000  1.0 -0.7858317453
O  O38  1  0.43504000  0.66116000  0.60680000  1.0 -0.7858317453
O  O39  1  0.33884000  0.56496000  0.10680000  1.0 -0.7858317453
O  O40  1  0.56496000  0.33884000  0.39320000  1.0 -0.7858317453
O  O41  1  0.46662000  0.38458000  0.81200000  1.0 -0.5682449448
O  O42  1  0.38458000  0.46662000  0.68800000  1.0 -0.5682449448
O  O43  1  0.53338000  0.61542000  0.18800000  1.0 -0.5682449448
O  O44  1  0.61542000  0.53338000  0.31200000  1.0 -0.5682449448
