# DDEC6 charges by PACMAN v1.1 (https://github.com/mtap-research/PACMAN-charge/)
data_WILNEL_ion_pacman
_symmetry_space_group_name_H-M   'P 1'
_cell_length_a   12.35050000
_cell_length_b   12.35050000
_cell_length_c   12.35050000
_cell_angle_alpha   90.89210000
_cell_angle_beta   90.89210000
_cell_angle_gamma   90.89210000
_symmetry_Int_Tables_number   1
_chemical_formula_structural   FeH42C18N24(ClO4)2
_chemical_formula_sum   'Fe2 H84 C36 N48 Cl4 O16'
_cell_volume   1883.18942914
_cell_formula_units_Z   2
loop_
 _symmetry_equiv_pos_site_id
 _symmetry_equiv_pos_as_xyz
  1  'x, y, z'
loop_
 _atom_site_type_symbol
 _atom_site_label
 _atom_site_symmetry_multiplicity
 _atom_site_fract_x
 _atom_site_fract_y
 _atom_site_fract_z
 _atom_site_occupancy
 _atom_site_charge
Fe  Fe1  1  0.27726000  0.27726000  0.27726000  1.0 0.5505371699
Fe  Fe2  1  0.77671000  0.77671000  0.77671000  1.0 0.5807821164
H  H1  1  0.91160000  0.75110000  0.01850000  1.0 0.1682772884
H  H2  1  0.75110000  0.01850000  0.91160000  1.0 0.1625756668
H  H3  1  0.01850000  0.91160000  0.75110000  1.0 0.1682772884
H  H4  1  0.55050000  0.28490000  0.21190000  1.0 0.1625756668
H  H5  1  0.28490000  0.21190000  0.55050000  1.0 0.1625756668
H  H6  1  0.21190000  0.55050000  0.28490000  1.0 0.1625756668
H  H7  1  0.79510000  0.53610000  0.64120000  1.0 0.1682772884
H  H8  1  0.53610000  0.64120000  0.79510000  1.0 0.1682772884
H  H9  1  0.64120000  0.79510000  0.53610000  1.0 0.1682772884
H  H10  1  0.27670000  0.33190000  0.00760000  1.0 0.1763735125
H  H11  1  0.33190000  0.00760000  0.27670000  1.0 0.1763735125
H  H12  1  0.00760000  0.27670000  0.33190000  1.0 0.1763735125
H  H13  1  0.63640000  0.83600000  0.24930000  1.0 0.0781233636
H  H14  1  0.83600000  0.24930000  0.63640000  1.0 0.0781233636
H  H15  1  0.24930000  0.63640000  0.83600000  1.0 0.0781233636
H  H16  1  0.54550000  0.83220000  0.15860000  1.0 0.0371122941
H  H17  1  0.83220000  0.15860000  0.54550000  1.0 0.0371122941
H  H18  1  0.15860000  0.54550000  0.83220000  1.0 0.0371122941
H  H19  1  0.63970000  0.64090000  0.24130000  1.0 0.1038218944
H  H20  1  0.64090000  0.24130000  0.63970000  1.0 0.1038218944
H  H21  1  0.24130000  0.63970000  0.64090000  1.0 0.1038218944
H  H22  1  0.52920000  0.68480000  0.28390000  1.0 0.1038218944
H  H23  1  0.68480000  0.28390000  0.52920000  1.0 0.1038218944
H  H24  1  0.28390000  0.52920000  0.68480000  1.0 0.1038218944
H  H25  1  0.55850000  0.62180000  0.06320000  1.0 0.0726629887
H  H26  1  0.62180000  0.06320000  0.55850000  1.0 0.0726629887
H  H27  1  0.06320000  0.55850000  0.62180000  1.0 0.0726629887
H  H28  1  0.44730000  0.65660000  0.11200000  1.0 0.0781233636
H  H29  1  0.65660000  0.11200000  0.44730000  1.0 0.0781233636
H  H30  1  0.11200000  0.44730000  0.65660000  1.0 0.0781233636
H  H31  1  0.73200000  0.40050000  0.01120000  1.0 0.0506880752
H  H32  1  0.40050000  0.01120000  0.73200000  1.0 0.0506880752
H  H33  1  0.01120000  0.73200000  0.40050000  1.0 0.0506880752
H  H34  1  0.72310000  0.30640000  0.92430000  1.0 0.0781233636
H  H35  1  0.30640000  0.92430000  0.72310000  1.0 0.0781233636
H  H36  1  0.92430000  0.72310000  0.30640000  1.0 0.0781233636
H  H37  1  0.91280000  0.31220000  0.90790000  1.0 0.1038218944
H  H38  1  0.31220000  0.90790000  0.91280000  1.0 0.1038218944
H  H39  1  0.90790000  0.91280000  0.31220000  1.0 0.1038218944
H  H40  1  0.87720000  0.27850000  0.02400000  1.0 0.1038218944
H  H41  1  0.27850000  0.02400000  0.87720000  1.0 0.1038218944
H  H42  1  0.02400000  0.87720000  0.27850000  1.0 0.1038218944
H  H43  1  0.91220000  0.45520000  0.08680000  1.0 0.0506880752
H  H44  1  0.45520000  0.08680000  0.91220000  1.0 0.0506880752
H  H45  1  0.08680000  0.91220000  0.45520000  1.0 0.0506880752
H  H46  1  0.94990000  0.48720000  0.97090000  1.0 0.0726629887
H  H47  1  0.48720000  0.97090000  0.94990000  1.0 0.0726629887
H  H48  1  0.97090000  0.94990000  0.48720000  1.0 0.0726629887
H  H49  1  0.63480000  0.76220000  0.25310000  1.0 0.0506880752
H  H50  1  0.76220000  0.25310000  0.63480000  1.0 0.0506880752
H  H51  1  0.25310000  0.63480000  0.76220000  1.0 0.0506880752
H  H52  1  0.59510000  0.87080000  0.20310000  1.0 0.0781233636
H  H53  1  0.87080000  0.20310000  0.59510000  1.0 0.0781233636
H  H54  1  0.20310000  0.59510000  0.87080000  1.0 0.0781233636
H  H55  1  0.47450000  0.77520000  0.08840000  1.0 0.0941345179
H  H56  1  0.77520000  0.08840000  0.47450000  1.0 0.0941345179
H  H57  1  0.08840000  0.47450000  0.77520000  1.0 0.0941345179
H  H58  1  0.45020000  0.74890000  0.20950000  1.0 0.1133624622
H  H59  1  0.74890000  0.20950000  0.45020000  1.0 0.1133624622
H  H60  1  0.20950000  0.45020000  0.74890000  1.0 0.1133624622
H  H61  1  0.59300000  0.61810000  0.12070000  1.0 0.0781233636
H  H62  1  0.61810000  0.12070000  0.59300000  1.0 0.0781233636
H  H63  1  0.12070000  0.59300000  0.61810000  1.0 0.0781233636
H  H64  1  0.48780000  0.61790000  0.05360000  1.0 0.0781233636
H  H65  1  0.61790000  0.05360000  0.48780000  1.0 0.0781233636
H  H66  1  0.05360000  0.48780000  0.61790000  1.0 0.0781233636
H  H67  1  0.69100000  0.35610000  0.96820000  1.0 0.0781233636
H  H68  1  0.35610000  0.96820000  0.69100000  1.0 0.0781233636
H  H69  1  0.96820000  0.69100000  0.35610000  1.0 0.0781233636
H  H70  1  0.79370000  0.30220000  0.91940000  1.0 0.0571129472
H  H71  1  0.30220000  0.91940000  0.79370000  1.0 0.0571129472
H  H72  1  0.91940000  0.79370000  0.30220000  1.0 0.0571129472
H  H73  1  0.82740000  0.34790000  0.10010000  1.0 0.1038218944
H  H74  1  0.34790000  0.10010000  0.82740000  1.0 0.1038218944
H  H75  1  0.10010000  0.82740000  0.34790000  1.0 0.1038218944
H  H76  1  0.79920000  0.46920000  0.07840000  1.0 0.0941345179
H  H77  1  0.46920000  0.07840000  0.79920000  1.0 0.0941345179
H  H78  1  0.07840000  0.79920000  0.46920000  1.0 0.0941345179
H  H79  1  0.95110000  0.50600000  0.03460000  1.0 0.0726629887
H  H80  1  0.50600000  0.03460000  0.95110000  1.0 0.0726629887
H  H81  1  0.03460000  0.95110000  0.50600000  1.0 0.0726629887
H  H82  1  0.94620000  0.41970000  0.94370000  1.0 0.0726629887
H  H83  1  0.41970000  0.94370000  0.94620000  1.0 0.0726629887
H  H84  1  0.94370000  0.94620000  0.41970000  1.0 0.0726629887
C  C1  1  0.83860000  0.76310000  0.03090000  1.0 0.1469276159
C  C2  1  0.76310000  0.03090000  0.83860000  1.0 0.1469276159
C  C3  1  0.03090000  0.83860000  0.76310000  1.0 0.1469276159
C  C4  1  0.51810000  0.35110000  0.19910000  1.0 0.1434266427
C  C5  1  0.35110000  0.19910000  0.51810000  1.0 0.1434266427
C  C6  1  0.19910000  0.51810000  0.35110000  1.0 0.1434266427
C  C7  1  0.78450000  0.52320000  0.71420000  1.0 0.1291646904
C  C8  1  0.52320000  0.71420000  0.78450000  1.0 0.1291646904
C  C9  1  0.71420000  0.78450000  0.52320000  1.0 0.1291646904
C  C10  1  0.20850000  0.34660000  0.03470000  1.0 0.1291646904
C  C11  1  0.34660000  0.03470000  0.20850000  1.0 0.1291646904
C  C12  1  0.03470000  0.20850000  0.34660000  1.0 0.1291646904
C  C13  1  0.60810000  0.79500000  0.18720000  1.0 -0.1401778351
C  C14  1  0.79500000  0.18720000  0.60810000  1.0 -0.1401778351
C  C15  1  0.18720000  0.60810000  0.79500000  1.0 -0.1401778351
C  C16  1  0.57550000  0.68070000  0.22130000  1.0 -0.1121044327
C  C17  1  0.68070000  0.22130000  0.57550000  1.0 -0.1121044327
C  C18  1  0.22130000  0.57550000  0.68070000  1.0 -0.1121044327
C  C19  1  0.51490000  0.62060000  0.12780000  1.0 -0.1401778351
C  C20  1  0.62060000  0.12780000  0.51490000  1.0 -0.1401778351
C  C21  1  0.12780000  0.51490000  0.62060000  1.0 -0.1401778351
C  C22  1  0.76520000  0.36970000  0.94730000  1.0 -0.1401778351
C  C23  1  0.36970000  0.94730000  0.76520000  1.0 -0.1401778351
C  C24  1  0.94730000  0.76520000  0.36970000  1.0 -0.1401778351
C  C25  1  0.87900000  0.33790000  0.97360000  1.0 -0.1155855535
C  C26  1  0.33790000  0.97360000  0.87900000  1.0 -0.1155855535
C  C27  1  0.97360000  0.87900000  0.33790000  1.0 -0.1155855535
C  C28  1  0.94670000  0.42830000  0.02190000  1.0 -0.1285385033
C  C29  1  0.42830000  0.02190000  0.94670000  1.0 -0.1285385033
C  C30  1  0.02190000  0.94670000  0.42830000  1.0 -0.1285385033
C  C31  1  0.50260000  0.73960000  0.15260000  1.0 -0.1121044327
C  C32  1  0.73960000  0.15260000  0.50260000  1.0 -0.1121044327
C  C33  1  0.15260000  0.50260000  0.73960000  1.0 -0.1155855535
C  C34  1  0.83050000  0.40520000  0.04690000  1.0 -0.1121044327
C  C35  1  0.40520000  0.04690000  0.83050000  1.0 -0.1121044327
C  C36  1  0.04690000  0.83050000  0.40520000  1.0 -0.1121044327
N  N1  1  0.79420000  0.75690000  0.12710000  1.0 -0.2194455108
N  N2  1  0.75690000  0.12710000  0.79420000  1.0 -0.2194455108
N  N3  1  0.12710000  0.79420000  0.75690000  1.0 -0.2194455108
N  N4  1  0.69110000  0.78720000  0.10420000  1.0 0.0371122941
N  N5  1  0.78720000  0.10420000  0.69110000  1.0 0.0371122941
N  N6  1  0.10420000  0.69110000  0.78720000  1.0 0.0371122941
N  N7  1  0.67240000  0.80400000  0.00170000  1.0 -0.0408043885
N  N8  1  0.80400000  0.00170000  0.67240000  1.0 -0.0408043885
N  N9  1  0.00170000  0.67240000  0.80400000  1.0 -0.0498936149
N  N10  1  0.76637000  0.78917000  0.95217000  1.0 -0.2000292903
N  N11  1  0.78917000  0.95217000  0.76637000  1.0 -0.2000292903
N  N12  1  0.95217000  0.76637000  0.78917000  1.0 -0.2000292903
N  N13  1  0.56880000  0.43410000  0.15900000  1.0 -0.2194455108
N  N14  1  0.43410000  0.15900000  0.56880000  1.0 -0.2194455108
N  N15  1  0.15900000  0.56880000  0.43410000  1.0 -0.2194455108
N  N16  1  0.49300000  0.50920000  0.15820000  1.0 0.0571129472
N  N17  1  0.50920000  0.15820000  0.49300000  1.0 0.0571129472
N  N18  1  0.15820000  0.49300000  0.50920000  1.0 0.0571129472
N  N19  1  0.39970000  0.47410000  0.19390000  1.0 -0.0408043885
N  N20  1  0.47410000  0.19390000  0.39970000  1.0 -0.0408043885
N  N21  1  0.19390000  0.39970000  0.47410000  1.0 -0.0408043885
N  N22  1  0.41400000  0.37180000  0.22010000  1.0 -0.1882610461
N  N23  1  0.37180000  0.22010000  0.41400000  1.0 -0.1882610461
N  N24  1  0.22010000  0.41400000  0.37180000  1.0 -0.1882610461
N  N25  1  0.78740000  0.42750000  0.75750000  1.0 -0.2266227147
N  N26  1  0.42750000  0.75750000  0.78740000  1.0 -0.2266227147
N  N27  1  0.75750000  0.78740000  0.42750000  1.0 -0.2266227147
N  N28  1  0.76600000  0.45010000  0.86010000  1.0 0.0571129472
N  N29  1  0.45010000  0.86010000  0.76600000  1.0 0.0571129472
N  N30  1  0.86010000  0.76600000  0.45010000  1.0 0.0571129472
N  N31  1  0.75450000  0.55220000  0.88110000  1.0 -0.0408043885
N  N32  1  0.55220000  0.88110000  0.75450000  1.0 -0.0408043885
N  N33  1  0.88110000  0.75450000  0.55220000  1.0 -0.0408043885
N  N34  1  0.76454000  0.60014000  0.78754000  1.0 -0.2000292903
N  N35  1  0.60014000  0.78754000  0.76454000  1.0 -0.2000292903
N  N36  1  0.78754000  0.76454000  0.60014000  1.0 -0.2000292903
N  N37  1  0.12710000  0.38260000  0.97630000  1.0 -0.1818025997
N  N38  1  0.38260000  0.97630000  0.12710000  1.0 -0.1818025997
N  N39  1  0.97630000  0.12710000  0.38260000  1.0 -0.1818025997
N  N40  1  0.05430000  0.39710000  0.04900000  1.0 0.0506880752
N  N41  1  0.39710000  0.04900000  0.05430000  1.0 0.0506880752
N  N42  1  0.04900000  0.05430000  0.39710000  1.0 0.0506880752
N  N43  1  0.08240000  0.36780000  0.14800000  1.0 -0.0498936149
N  N44  1  0.36780000  0.14800000  0.08240000  1.0 -0.0498936149
N  N45  1  0.14800000  0.08240000  0.36780000  1.0 -0.0498936149
N  N46  1  0.18050000  0.33350000  0.13910000  1.0 -0.1710741014
N  N47  1  0.33350000  0.13910000  0.18050000  1.0 -0.1710741014
N  N48  1  0.13910000  0.18050000  0.33350000  1.0 -0.1710741014
Cl  Cl1  1  0.16086000  0.70412000  0.09669000  1.0 0.8963580141
Cl  Cl2  1  0.09669000  0.16086000  0.70412000  1.0 0.8963580141
Cl  Cl3  1  0.70412000  0.09669000  0.16086000  1.0 0.8945282707
Cl  Cl4  1  0.51096000  0.51096000  0.51096000  1.0 1.1746957311
O  O1  1  0.19990000  0.75790000  0.18900000  1.0 -0.4228059591
O  O2  1  0.12000000  0.76930000  0.01720000  1.0 -0.4108190751
O  O3  1  0.22650000  0.62400000  0.06260000  1.0 -0.4266943028
O  O4  1  0.06480000  0.65070000  0.14240000  1.0 -0.4228059591
O  O5  1  0.18900000  0.19990000  0.75790000  1.0 -0.4228059591
O  O6  1  0.01720000  0.12000000  0.76930000  1.0 -0.4108190751
O  O7  1  0.06260000  0.22650000  0.62400000  1.0 -0.4266943028
O  O8  1  0.14240000  0.06480000  0.65070000  1.0 -0.4228059591
O  O9  1  0.75790000  0.18900000  0.19990000  1.0 -0.4228059591
O  O10  1  0.76930000  0.01720000  0.12000000  1.0 -0.4108190751
O  O11  1  0.62400000  0.06260000  0.22650000  1.0 -0.4266943028
O  O12  1  0.65070000  0.14240000  0.06480000  1.0 -0.4228059591
O  O13  1  0.57387000  0.57387000  0.57387000  1.0 -0.4108190751
O  O14  1  0.55730000  0.47820000  0.41790000  1.0 -0.3890360188
O  O15  1  0.47820000  0.41790000  0.55730000  1.0 -0.3890360188
O  O16  1  0.41790000  0.55730000  0.47820000  1.0 -0.3890360188
