# DDEC6 charges by PACMAN v1.1 (https://github.com/mtap-research/PACMAN-charge/)
data_WILRIS_ASR_pacman
_symmetry_space_group_name_H-M   'P 1'
_cell_length_a   11.42870000
_cell_length_b   11.42870000
_cell_length_c   12.93100000
_cell_angle_alpha   77.00380000
_cell_angle_beta   102.99600000
_cell_angle_gamma   75.81940000
_symmetry_Int_Tables_number   1
_chemical_formula_structural   Cd3(C2N)4
_chemical_formula_sum   'Cd6 C16 N8'
_cell_volume   1523.89148683
_cell_formula_units_Z   2
loop_
 _symmetry_equiv_pos_site_id
 _symmetry_equiv_pos_as_xyz
  1  'x, y, z'
loop_
 _atom_site_type_symbol
 _atom_site_label
 _atom_site_symmetry_multiplicity
 _atom_site_fract_x
 _atom_site_fract_y
 _atom_site_fract_z
 _atom_site_occupancy
 _atom_site_charge
Cd  Cd1  1  0.64552000  0.64552000  0.75000000  1.0 0.9156200364
Cd  Cd2  1  0.35448000  0.35448000  0.25000000  1.0 0.8972322419
Cd  Cd3  1  0.21427000  0.06557000  0.57936000  1.0 0.5557053462
Cd  Cd4  1  0.06557000  0.21427000  0.92064000  1.0 0.5557053462
Cd  Cd5  1  0.78573000  0.93443000  0.42064000  1.0 0.5557053462
Cd  Cd6  1  0.93443000  0.78573000  0.07936000  1.0 0.5557053462
C  C1  1  0.37320000  0.89060000  0.65530000  1.0 0.1591565087
C  C2  1  0.89060000  0.37320000  0.84470000  1.0 0.1591565087
C  C3  1  0.62680000  0.10940000  0.34470000  1.0 0.1517691165
C  C4  1  0.10940000  0.62680000  0.15530000  1.0 0.1517691165
C  C5  1  0.25200000  0.19940000  0.45120000  1.0 0.1113022566
C  C6  1  0.19940000  0.25200000  0.04880000  1.0 0.1113022566
C  C7  1  0.74800000  0.80060000  0.54880000  1.0 0.1113022566
C  C8  1  0.80060000  0.74800000  0.95120000  1.0 0.1113022566
C  C9  1  0.04510000  0.01470000  0.51540000  1.0 -0.2218647226
C  C10  1  0.01470000  0.04510000  0.98460000  1.0 -0.2218647226
C  C11  1  0.95490000  0.98530000  0.48460000  1.0 -0.2254919037
C  C12  1  0.98530000  0.95490000  0.01540000  1.0 -0.2254919037
C  C13  1  0.16740000  0.14320000  0.71290000  1.0 -0.2014509439
C  C14  1  0.14320000  0.16740000  0.78710000  1.0 -0.2014509439
C  C15  1  0.83260000  0.85680000  0.28710000  1.0 -0.2014509439
C  C16  1  0.85680000  0.83260000  0.21290000  1.0 -0.2014509439
N  N1  1  0.45910000  0.80330000  0.68910000  1.0 -0.4602756723
N  N2  1  0.80330000  0.45910000  0.81090000  1.0 -0.4602756723
N  N3  1  0.54090000  0.19670000  0.31090000  1.0 -0.4543797001
N  N4  1  0.19670000  0.54090000  0.18910000  1.0 -0.4543797001
N  N5  1  0.72240000  0.73960000  0.61540000  1.0 -0.3959843144
N  N6  1  0.73960000  0.72240000  0.88460000  1.0 -0.3959843144
N  N7  1  0.27760000  0.26040000  0.38460000  1.0 -0.3904687688
N  N8  1  0.26040000  0.27760000  0.11540000  1.0 -0.3904687688
