# DDEC6 charges by PACMAN v1.1 (https://github.com/mtap-research/PACMAN-charge/)
data_WINRAP_FSR_pacman
_symmetry_space_group_name_H-M   'P 1'
_cell_length_a   13.51830000
_cell_length_b   16.20650000
_cell_length_c   30.68400000
_cell_angle_alpha   83.17300000
_cell_angle_beta   86.60300000
_cell_angle_gamma   77.56700000
_symmetry_Int_Tables_number   1
_chemical_formula_structural   Y3H67C104N10O21
_chemical_formula_sum   'Y6 H134 C208 N20 O42'
_cell_volume   6514.25758498
_cell_formula_units_Z   2
loop_
 _symmetry_equiv_pos_site_id
 _symmetry_equiv_pos_as_xyz
  1  'x, y, z'
loop_
 _atom_site_type_symbol
 _atom_site_label
 _atom_site_symmetry_multiplicity
 _atom_site_fract_x
 _atom_site_fract_y
 _atom_site_fract_z
 _atom_site_occupancy
 _atom_site_charge
Y  Y1  1  0.35823000  0.03706000  0.22116000  1.0 1.7399391372
Y  Y2  1  0.10567000  0.98354000  0.26495000  1.0 1.7399391372
Y  Y3  1  0.78620000  0.98877000  0.24498000  1.0 1.6169098158
Y  Y4  1  0.64177000  0.96294000  0.77884000  1.0 1.7399391372
Y  Y5  1  0.89433000  0.01646000  0.73505000  1.0 1.7399391372
Y  Y6  1  0.21380000  0.01123000  0.75502000  1.0 1.6169098158
H  H1  1  0.65367000  0.49399000  0.98448000  1.0 0.2752426107
H  H2  1  0.71831000  0.49915000  0.05327000  1.0 0.2728481431
H  H3  1  0.83454000  0.54448000  0.50513000  1.0 0.2728481431
H  H4  1  0.88135000  0.61160000  0.62290000  1.0 0.1210192703
H  H5  1  0.76192000  0.54238000  0.43725000  1.0 0.2728481431
H  H6  1  0.94605000  0.21374000  0.04392000  1.0 0.1290163939
H  H7  1  0.45812000  0.82858000  0.18238000  1.0 0.1210192703
H  H8  1  0.25293000  0.84855000  0.90443000  1.0 0.1126361032
H  H9  1  0.76112000  0.81671000  0.17699000  1.0 0.1126361032
H  H10  1  0.00479000  0.24003000  0.50272000  1.0 0.1290163939
H  H11  1  0.46953000  0.54894000  0.88171000  1.0 0.1290163939
H  H12  1  0.67537000  0.19064000  0.95265000  1.0 0.1210192703
H  H13  1  0.86017000  0.42607000  0.16714000  1.0 0.1290163939
H  H14  1  0.84969000  0.82902000  0.54825000  1.0 0.1210192703
H  H15  1  0.85294000  0.91153000  0.60521000  1.0 0.1290163939
H  H16  1  0.85593000  0.21268000  0.13922000  1.0 0.1210192703
H  H17  1  0.78665000  0.35315000  0.86229000  1.0 0.1290163939
H  H18  1  0.87137000  0.20657000  0.97263000  1.0 0.1290163939
H  H19  1  0.98476000  0.12826000  0.18112000  1.0 0.1210192703
H  H20  1  0.33919000  0.74515000  0.95707000  1.0 0.1126361032
H  H21  1  0.56197000  0.67477000  0.86664000  1.0 0.1126361032
H  H22  1  0.48570000  0.80023000  0.97982000  1.0 0.1210192703
H  H23  1  0.48071000  0.72335000  0.13432000  1.0 0.1126361032
H  H24  1  0.67662000  0.68898000  0.62516000  1.0 0.1210192703
H  H25  1  0.98399000  0.34670000  0.34311000  1.0 0.1210192703
H  H26  1  0.11799000  0.34720000  0.58805000  1.0 0.1210192703
H  H27  1  0.57455000  0.40539000  0.87715000  1.0 0.1210192703
H  H28  1  0.78234000  0.71125000  0.12964000  1.0 0.1210192703
H  H29  1  0.01653000  0.23666000  0.29883000  1.0 0.1290163939
H  H30  1  0.96313000  0.45997000  0.62141000  1.0 0.1290163939
H  H31  1  0.68791000  0.09428000  0.90165000  1.0 0.1126361032
H  H32  1  0.54701000  0.80248000  0.05406000  1.0 0.1210192703
H  H33  1  0.16535000  0.23721000  0.64348000  1.0 0.1210192703
H  H34  1  0.69155000  0.46761000  0.32492000  1.0 0.1290163939
H  H35  1  0.81111000  0.25227000  0.81249000  1.0 0.1210192703
H  H36  1  0.69894000  0.30919000  0.36878000  1.0 0.1210192703
H  H37  1  0.74865000  0.56746000  0.17331000  1.0 0.1290163939
H  H38  1  0.72905000  0.20310000  0.32192000  1.0 0.1210192703
H  H39  1  0.95218000  0.24535000  0.42646000  1.0 0.1210192703
H  H40  1  0.47677000  0.77766000  0.81403000  1.0 0.1290163939
H  H41  1  0.67668000  0.77567000  0.68121000  1.0 0.1210192703
H  H42  1  0.63614000  0.84132000  0.51790000  1.0 0.1290163939
H  H43  1  0.55441000  0.83771000  0.44737000  1.0 0.1210192703
H  H44  1  0.85982000  0.26504000  0.57388000  1.0 0.1210192703
H  H45  1  0.03736000  0.37833000  0.10287000  1.0 0.1290163939
H  H46  1  0.58164000  0.61038000  0.33346000  1.0 0.1290163939
H  H47  1  0.90947000  0.15280000  0.62814000  1.0 0.1210192703
H  H48  1  0.62326000  0.80697000  0.34376000  1.0 0.1210192703
H  H49  1  0.16999000  0.29080000  0.14228000  1.0 0.1290163939
H  H50  1  0.49050000  0.88446000  0.29877000  1.0 0.1126361032
H  H51  1  0.41836000  0.70118000  0.41815000  1.0 0.1290163939
H  H52  1  0.28698000  0.77403000  0.37257000  1.0 0.1210192703
H  H53  1  0.34943000  0.07861000  0.11548000  1.0 0.1210192703
H  H54  1  0.62887000  0.97218000  0.06390000  1.0 0.1398514126
H  H55  1  0.63234000  0.02955000  0.10256000  1.0 0.1398514126
H  H56  1  0.60432000  0.93812000  0.11362000  1.0 0.1290163939
H  H57  1  0.58975000  0.93730000  0.32563000  1.0 0.0708362301
H  H58  1  0.45482000  0.07288000  0.41296000  1.0 0.1290163939
H  H59  1  0.42128000  0.01132000  0.38220000  1.0 0.1290163939
H  H60  1  0.51124000  0.97500000  0.41544000  1.0 0.1290163939
H  H61  1  0.39066000  0.99147000  0.04267000  1.0 0.1290163939
H  H62  1  0.40757000  0.08553000  0.02749000  1.0 0.1398514126
H  H63  1  0.50455000  0.18360000  0.36141000  1.0 0.1126361032
H  H64  1  0.60304000  0.16398000  0.32965000  1.0 0.1290163939
H  H65  1  0.49497000  0.15727000  0.31345000  1.0 0.1503892978
H  H66  1  0.96069000  0.95154000  0.16857000  1.0 0.1126361032
H  H67  1  0.97874000  0.85540000  0.22860000  1.0 0.1126361032
H  H68  1  0.34633000  0.50601000  0.01552000  1.0 0.2728481431
H  H69  1  0.28169000  0.50085000  0.94673000  1.0 0.2728481431
H  H70  1  0.16546000  0.45552000  0.49487000  1.0 0.2728481431
H  H71  1  0.11865000  0.38840000  0.37710000  1.0 0.1210192703
H  H72  1  0.23808000  0.45762000  0.56275000  1.0 0.2728481431
H  H73  1  0.05395000  0.78626000  0.95608000  1.0 0.1290163939
H  H74  1  0.54188000  0.17142000  0.81762000  1.0 0.1210192703
H  H75  1  0.74707000  0.15145000  0.09557000  1.0 0.1126361032
H  H76  1  0.23888000  0.18329000  0.82301000  1.0 0.1126361032
H  H77  1  0.99521000  0.75997000  0.49728000  1.0 0.1210192703
H  H78  1  0.53047000  0.45106000  0.11829000  1.0 0.1290163939
H  H79  1  0.32463000  0.80936000  0.04735000  1.0 0.1210192703
H  H80  1  0.13983000  0.57393000  0.83286000  1.0 0.1290163939
H  H81  1  0.15031000  0.17098000  0.45175000  1.0 0.1210192703
H  H82  1  0.14706000  0.08847000  0.39479000  1.0 0.1290163939
H  H83  1  0.14407000  0.78732000  0.86078000  1.0 0.1210192703
H  H84  1  0.21335000  0.64685000  0.13771000  1.0 0.1290163939
H  H85  1  0.12863000  0.79343000  0.02737000  1.0 0.1290163939
H  H86  1  0.01524000  0.87174000  0.81888000  1.0 0.1210192703
H  H87  1  0.66081000  0.25485000  0.04293000  1.0 0.1126361032
H  H88  1  0.43803000  0.32523000  0.13336000  1.0 0.1126361032
H  H89  1  0.51430000  0.19977000  0.02018000  1.0 0.1210192703
H  H90  1  0.51929000  0.27665000  0.86568000  1.0 0.1126361032
H  H91  1  0.32338000  0.31102000  0.37484000  1.0 0.1210192703
H  H92  1  0.01601000  0.65330000  0.65689000  1.0 0.1210192703
H  H93  1  0.88201000  0.65280000  0.41195000  1.0 0.1210192703
H  H94  1  0.42545000  0.59461000  0.12285000  1.0 0.1210192703
H  H95  1  0.21766000  0.28875000  0.87036000  1.0 0.1210192703
H  H96  1  0.98347000  0.76334000  0.70117000  1.0 0.1290163939
H  H97  1  0.03687000  0.54003000  0.37859000  1.0 0.1290163939
H  H98  1  0.31209000  0.90572000  0.09835000  1.0 0.1126361032
H  H99  1  0.45299000  0.19752000  0.94594000  1.0 0.1210192703
H  H100  1  0.83465000  0.76279000  0.35652000  1.0 0.1210192703
H  H101  1  0.30845000  0.53239000  0.67508000  1.0 0.1290163939
H  H102  1  0.18889000  0.74773000  0.18751000  1.0 0.1210192703
H  H103  1  0.30106000  0.69081000  0.63122000  1.0 0.1210192703
H  H104  1  0.25135000  0.43254000  0.82669000  1.0 0.1290163939
H  H105  1  0.27095000  0.79690000  0.67808000  1.0 0.1210192703
H  H106  1  0.04782000  0.75465000  0.57354000  1.0 0.1210192703
H  H107  1  0.52323000  0.22234000  0.18597000  1.0 0.1290163939
H  H108  1  0.32332000  0.22433000  0.31879000  1.0 0.1210192703
H  H109  1  0.36386000  0.15868000  0.48210000  1.0 0.1290163939
H  H110  1  0.44559000  0.16229000  0.55263000  1.0 0.1210192703
H  H111  1  0.14018000  0.73496000  0.42612000  1.0 0.1210192703
H  H112  1  0.96264000  0.62167000  0.89713000  1.0 0.1290163939
H  H113  1  0.41836000  0.38962000  0.66654000  1.0 0.1290163939
H  H114  1  0.09053000  0.84720000  0.37186000  1.0 0.1210192703
H  H115  1  0.37674000  0.19303000  0.65624000  1.0 0.1210192703
H  H116  1  0.83001000  0.70920000  0.85772000  1.0 0.1290163939
H  H117  1  0.50950000  0.11554000  0.70123000  1.0 0.1126361032
H  H118  1  0.58164000  0.29882000  0.58185000  1.0 0.1290163939
H  H119  1  0.71302000  0.22597000  0.62743000  1.0 0.1210192703
H  H120  1  0.65057000  0.92139000  0.88452000  1.0 0.1210192703
H  H121  1  0.37113000  0.02782000  0.93610000  1.0 0.1398514126
H  H122  1  0.36766000  0.97045000  0.89744000  1.0 0.1290163939
H  H123  1  0.39568000  0.06188000  0.88638000  1.0 0.1290163939
H  H124  1  0.41025000  0.06270000  0.67437000  1.0 0.0708362301
H  H125  1  0.54518000  0.92712000  0.58704000  1.0 0.1290163939
H  H126  1  0.57872000  0.98868000  0.61780000  1.0 0.1290163939
H  H127  1  0.48876000  0.02500000  0.58456000  1.0 0.1290163939
H  H128  1  0.60934000  0.00853000  0.95733000  1.0 0.1290163939
H  H129  1  0.59243000  0.91447000  0.97251000  1.0 0.1398514126
H  H130  1  0.49545000  0.81640000  0.63859000  1.0 0.1126361032
H  H131  1  0.39696000  0.83602000  0.67035000  1.0 0.1290163939
H  H132  1  0.50503000  0.84273000  0.68655000  1.0 0.1503892978
H  H133  1  0.03931000  0.04846000  0.83143000  1.0 0.1126361032
H  H134  1  0.02126000  0.14460000  0.77140000  1.0 0.1126361032
C  C1  1  0.90050000  0.13310000  0.28020000  1.0 0.6226486702
C  C2  1  0.87740000  0.20780000  0.30620000  1.0 -0.0371189634
C  C3  1  0.29350000  0.88160000  0.30180000  1.0 0.6094275255
C  C4  1  0.88160000  0.57840000  0.59940000  1.0 -0.1903444379
C  C5  1  0.83420000  0.60670000  0.55820000  1.0 0.1776121757
C  C6  1  0.89330000  0.25520000  0.03000000  1.0 -0.1903444379
C  C7  1  0.17590000  0.14360000  0.19010000  1.0 0.5989421149
C  C8  1  0.74920000  0.16450000  0.85120000  1.0 -0.0371189634
C  C9  1  0.85600000  0.35910000  0.08690000  1.0 -0.079860741
C  C10  1  0.46000000  0.69910000  0.91690000  1.0 0.0890994365
C  C11  1  0.63350000  0.70680000  0.12700000  1.0 0.0890994365
C  C12  1  0.30310000  0.88830000  0.82040000  1.0 0.5481209894
C  C13  1  0.71050000  0.56290000  0.10610000  1.0 0.1710489866
C  C14  1  0.52430000  0.80500000  0.17160000  1.0 -0.091260926
C  C15  1  0.83990000  0.33710000  0.36140000  1.0 0.095286793
C  C16  1  0.76520000  0.74930000  0.58160000  1.0 0.0890994365
C  C17  1  0.31560000  0.81330000  0.89660000  1.0 -0.1076318483
C  C18  1  0.60700000  0.83280000  0.18430000  1.0 -0.0371189634
C  C19  1  0.64220000  0.42190000  0.93650000  1.0 0.1776121757
C  C20  1  0.80540000  0.43530000  0.10250000  1.0 0.1776121757
C  C21  1  0.77720000  0.32700000  0.98190000  1.0 0.1883950636
C  C22  1  0.92740000  0.36890000  0.50110000  1.0 0.1883950636
C  C23  1  0.70390000  0.79790000  0.16850000  1.0 -0.1004989926
C  C24  1  0.51970000  0.63600000  0.95020000  1.0 -0.079860741
C  C25  1  0.76820000  0.84980000  0.64940000  1.0 -0.0482211496
C  C26  1  0.96550000  0.28790000  0.48620000  1.0 -0.2088035151
C  C27  1  0.55250000  0.55290000  0.93880000  1.0 0.1776121757
C  C28  1  0.64880000  0.64260000  0.09520000  1.0 -0.091260926
C  C29  1  0.59300000  0.90180000  0.21440000  1.0 0.6253308792
C  C30  1  0.52080000  0.52010000  0.90130000  1.0 -0.1903444379
C  C31  1  0.70080000  0.20420000  0.92380000  1.0 -0.1504001222
C  C32  1  0.81750000  0.45910000  0.14510000  1.0 -0.1981219716
C  C33  1  0.81610000  0.81700000  0.57560000  1.0 -0.1588855769
C  C34  1  0.81770000  0.86630000  0.60940000  1.0 -0.091260926
C  C35  1  0.94120000  0.39190000  0.54250000  1.0 -0.079860741
C  C36  1  0.91930000  0.22890000  0.13960000  1.0 -0.1416620176
C  C37  1  0.76820000  0.30000000  0.87070000  1.0 -0.1504001222
C  C38  1  0.71500000  0.34730000  0.94510000  1.0 -0.079860741
C  C39  1  0.60010000  0.66820000  0.05500000  1.0 0.1952904601
C  C40  1  0.85270000  0.25150000  0.99080000  1.0 -0.1981219716
C  C41  1  0.99660000  0.17870000  0.16450000  1.0 -0.091260926
C  C42  1  0.77310000  0.68840000  0.54720000  1.0 -0.0745412718
C  C43  1  0.36720000  0.75150000  0.92800000  1.0 -0.1416620176
C  C44  1  0.82360000  0.40060000  0.39470000  1.0 -0.079860741
C  C45  1  0.49920000  0.70980000  0.87450000  1.0 -0.1504001222
C  C46  1  0.90850000  0.47310000  0.55600000  1.0 0.1776121757
C  C47  1  0.51920000  0.75240000  0.99830000  1.0 -0.2088035151
C  C48  1  0.87780000  0.37440000  0.43270000  1.0 0.1883950636
C  C49  1  0.98230000  0.31940000  0.57570000  1.0 0.095286793
C  C50  1  0.54280000  0.66580000  0.98820000  1.0 0.1883950636
C  C51  1  0.53790000  0.74200000  0.14290000  1.0 -0.1588855769
C  C52  1  0.93520000  0.30410000  0.11490000  1.0 0.0890994365
C  C53  1  0.71260000  0.73370000  0.62100000  1.0 -0.167383277
C  C54  1  0.93270000  0.31630000  0.33960000  1.0 -0.1504001222
C  C55  1  0.07450000  0.30880000  0.59660000  1.0 -0.1416620176
C  C56  1  0.57700000  0.44150000  0.89910000  1.0 -0.1903444379
C  C57  1  0.71620000  0.73520000  0.14020000  1.0 -0.1504001222
C  C58  1  0.35590000  0.82280000  0.85430000  1.0 -0.0303378395
C  C59  1  0.95160000  0.25150000  0.31290000  1.0 -0.091260926
C  C60  1  0.72910000  0.28290000  0.91280000  1.0 0.0890994365
C  C61  1  0.92650000  0.49610000  0.59850000  1.0 -0.1903444379
C  C62  1  0.70920000  0.14640000  0.89370000  1.0 -0.1004989926
C  C63  1  0.55320000  0.75370000  0.03890000  1.0 -0.2088035151
C  C64  1  0.77050000  0.90060000  0.68700000  1.0 0.6094275255
C  C65  1  0.08900000  0.19910000  0.16600000  1.0 -0.0371189634
C  C66  1  0.04090000  0.18610000  0.64220000  1.0 -0.0371189634
C  C67  1  0.71790000  0.71530000  0.50970000  1.0 0.1883950636
C  C68  1  0.10300000  0.24320000  0.62950000  1.0 -0.1004989926
C  C69  1  0.69200000  0.50090000  0.34840000  1.0 -0.2088035151
C  C70  1  0.78070000  0.24060000  0.84060000  1.0 -0.1004989926
C  C71  1  0.76350000  0.29450000  0.35450000  1.0 -0.1504001222
C  C72  1  0.75790000  0.53650000  0.14850000  1.0 -0.1838456663
C  C73  1  0.65970000  0.60380000  0.39270000  1.0 0.1710489866
C  C74  1  0.78160000  0.23110000  0.32690000  1.0 -0.091260926
C  C75  1  0.93660000  0.29050000  0.44450000  1.0 -0.1903444379
C  C76  1  0.53400000  0.73870000  0.38230000  1.0 0.0890994365
C  C77  1  0.44850000  0.77110000  0.84300000  1.0 -0.079860741
C  C78  1  0.71380000  0.78510000  0.65450000  1.0 -0.091260926
C  C79  1  0.84220000  0.33260000  0.04630000  1.0 0.1883950636
C  C80  1  0.64860000  0.79530000  0.50040000  1.0 -0.1981219716
C  C81  1  0.60360000  0.79350000  0.46170000  1.0 -0.1981219716
C  C82  1  0.64570000  0.71060000  0.44680000  1.0 0.1883950636
C  C83  1  0.92180000  0.25980000  0.58810000  1.0 -0.1504001222
C  C84  1  0.02730000  0.32590000  0.11790000  1.0 -0.1504001222
C  C85  1  0.63180000  0.57900000  0.35290000  1.0 -0.1903444379
C  C86  1  0.61720000  0.68330000  0.40900000  1.0 -0.079860741
C  C87  1  0.95070000  0.19330000  0.62060000  1.0 -0.1004989926
C  C88  1  0.55620000  0.79790000  0.34880000  1.0 -0.167383277
C  C89  1  0.75520000  0.10240000  0.81780000  1.0 0.6094275255
C  C90  1  0.37860000  0.83340000  0.32980000  1.0 -0.0303378395
C  C91  1  0.06570000  0.11630000  0.67910000  1.0 0.6094275255
C  C92  1  0.75560000  0.47850000  0.38530000  1.0 0.1776121757
C  C93  1  0.10630000  0.27500000  0.14200000  1.0 -0.091260926
C  C94  1  0.47620000  0.84460000  0.32230000  1.0 -0.1076318483
C  C95  1  0.43400000  0.73520000  0.39230000  1.0 -0.1504001222
C  C96  1  0.35480000  0.77990000  0.36600000  1.0 -0.1004989926
C  C97  1  0.41940000  0.06000000  0.12130000  1.0 0.3323591937
C  C98  1  0.59790000  0.98860000  0.09210000  1.0 -0.3415903112
C  C99  1  0.60860000  0.98980000  0.32790000  1.0 0.3432102342
C  C100  1  0.47880000  0.02450000  0.39590000  1.0 -0.3803080033
C  C101  1  0.43980000  0.02840000  0.04020000  1.0 -0.4194238388
C  C102  1  0.53830000  0.14830000  0.33880000  1.0 -0.3803080033
C  C103  1  0.97000000  0.91300000  0.19670000  1.0 0.1398514126
C  C104  1  0.95600000  0.90060000  0.20390000  1.0 0.2280760769
C  C105  1  0.09950000  0.86690000  0.71980000  1.0 0.6226486702
C  C106  1  0.12260000  0.79220000  0.69380000  1.0 -0.0371189634
C  C107  1  0.70650000  0.11840000  0.69820000  1.0 0.6094275255
C  C108  1  0.11840000  0.42160000  0.40060000  1.0 -0.1903444379
C  C109  1  0.16580000  0.39330000  0.44180000  1.0 0.1776121757
C  C110  1  0.10670000  0.74480000  0.97000000  1.0 -0.1903444379
C  C111  1  0.82410000  0.85640000  0.80990000  1.0 0.5989421149
C  C112  1  0.25080000  0.83550000  0.14880000  1.0 -0.0371189634
C  C113  1  0.14400000  0.64090000  0.91310000  1.0 -0.079860741
C  C114  1  0.54000000  0.30090000  0.08310000  1.0 0.0890994365
C  C115  1  0.36650000  0.29320000  0.87300000  1.0 0.0890994365
C  C116  1  0.69690000  0.11170000  0.17960000  1.0 0.5481209894
C  C117  1  0.28950000  0.43710000  0.89390000  1.0 0.1710489866
C  C118  1  0.47570000  0.19500000  0.82840000  1.0 -0.091260926
C  C119  1  0.16010000  0.66290000  0.63860000  1.0 0.095286793
C  C120  1  0.23480000  0.25070000  0.41840000  1.0 0.0890994365
C  C121  1  0.68440000  0.18670000  0.10340000  1.0 -0.1076318483
C  C122  1  0.39300000  0.16720000  0.81570000  1.0 -0.0371189634
C  C123  1  0.35780000  0.57810000  0.06350000  1.0 0.1776121757
C  C124  1  0.19460000  0.56470000  0.89750000  1.0 0.1776121757
C  C125  1  0.22280000  0.67300000  0.01810000  1.0 0.1883950636
C  C126  1  0.07260000  0.63110000  0.49890000  1.0 0.1952904601
C  C127  1  0.29610000  0.20210000  0.83150000  1.0 -0.1004989926
C  C128  1  0.48030000  0.36400000  0.04980000  1.0 -0.079860741
C  C129  1  0.23180000  0.15020000  0.35060000  1.0 -0.0482211496
C  C130  1  0.03450000  0.71210000  0.51380000  1.0 -0.2088035151
C  C131  1  0.44750000  0.44710000  0.06120000  1.0 0.1776121757
C  C132  1  0.35120000  0.35740000  0.90480000  1.0 -0.091260926
C  C133  1  0.40700000  0.09820000  0.78560000  1.0 0.6253308792
C  C134  1  0.47920000  0.47990000  0.09870000  1.0 -0.1903444379
C  C135  1  0.29920000  0.79580000  0.07620000  1.0 -0.1504001222
C  C136  1  0.18250000  0.54090000  0.85490000  1.0 -0.1981219716
C  C137  1  0.18390000  0.18300000  0.42440000  1.0 -0.1588855769
C  C138  1  0.18230000  0.13370000  0.39060000  1.0 -0.091260926
C  C139  1  0.05880000  0.60810000  0.45750000  1.0 -0.079860741
C  C140  1  0.08070000  0.77110000  0.86040000  1.0 -0.1416620176
C  C141  1  0.23180000  0.70000000  0.12930000  1.0 -0.1504001222
C  C142  1  0.28500000  0.65270000  0.05490000  1.0 -0.079860741
C  C143  1  0.39990000  0.33180000  0.94500000  1.0 0.1952904601
C  C144  1  0.14730000  0.74850000  0.00920000  1.0 -0.1981219716
C  C145  1  0.00340000  0.82130000  0.83550000  1.0 -0.091260926
C  C146  1  0.22690000  0.31160000  0.45280000  1.0 -0.0745412718
C  C147  1  0.63280000  0.24850000  0.07200000  1.0 -0.1416620176
C  C148  1  0.17640000  0.59940000  0.60530000  1.0 -0.079860741
C  C149  1  0.50080000  0.29020000  0.12550000  1.0 -0.1504001222
C  C150  1  0.09150000  0.52690000  0.44400000  1.0 0.1776121757
C  C151  1  0.48080000  0.24760000  0.00170000  1.0 -0.2088035151
C  C152  1  0.12220000  0.62560000  0.56730000  1.0 0.1883950636
C  C153  1  0.01770000  0.68060000  0.42430000  1.0 0.0890994365
C  C154  1  0.45720000  0.33420000  0.01180000  1.0 0.1883950636
C  C155  1  0.46210000  0.25800000  0.85710000  1.0 -0.1588855769
C  C156  1  0.06480000  0.69590000  0.88510000  1.0 0.0890994365
C  C157  1  0.28740000  0.26630000  0.37900000  1.0 -0.167383277
C  C158  1  0.06730000  0.68370000  0.66040000  1.0 -0.1504001222
C  C159  1  0.92550000  0.69120000  0.40340000  1.0 -0.1416620176
C  C160  1  0.42300000  0.55850000  0.10090000  1.0 -0.1903444379
C  C161  1  0.28380000  0.26480000  0.85980000  1.0 -0.1504001222
C  C162  1  0.64410000  0.17720000  0.14570000  1.0 -0.0303378395
C  C163  1  0.04840000  0.74850000  0.68710000  1.0 -0.091260926
C  C164  1  0.27090000  0.71710000  0.08720000  1.0 0.0890994365
C  C165  1  0.07350000  0.50390000  0.40150000  1.0 -0.1903444379
C  C166  1  0.29080000  0.85360000  0.10630000  1.0 -0.1004989926
C  C167  1  0.44680000  0.24630000  0.96110000  1.0 -0.2088035151
C  C168  1  0.22950000  0.09940000  0.31300000  1.0 0.6094275255
C  C169  1  0.91100000  0.80090000  0.83400000  1.0 -0.0371189634
C  C170  1  0.95910000  0.81390000  0.35780000  1.0 -0.0371189634
C  C171  1  0.28210000  0.28470000  0.49030000  1.0 0.1883950636
C  C172  1  0.89700000  0.75680000  0.37050000  1.0 -0.1004989926
C  C173  1  0.30800000  0.49910000  0.65160000  1.0 -0.2088035151
C  C174  1  0.21930000  0.75940000  0.15940000  1.0 -0.1004989926
C  C175  1  0.23650000  0.70550000  0.64550000  1.0 -0.1504001222
C  C176  1  0.24210000  0.46350000  0.85150000  1.0 -0.1838456663
C  C177  1  0.34030000  0.39620000  0.60730000  1.0 0.1710489866
C  C178  1  0.21840000  0.76890000  0.67310000  1.0 -0.091260926
C  C179  1  0.06340000  0.70950000  0.55550000  1.0 -0.1903444379
C  C180  1  0.46600000  0.26130000  0.61770000  1.0 0.0890994365
C  C181  1  0.55150000  0.22890000  0.15700000  1.0 -0.079860741
C  C182  1  0.28620000  0.21490000  0.34550000  1.0 -0.091260926
C  C183  1  0.15780000  0.66740000  0.95370000  1.0 0.1883950636
C  C184  1  0.35140000  0.20470000  0.49960000  1.0 -0.1981219716
C  C185  1  0.39640000  0.20650000  0.53830000  1.0 -0.1981219716
C  C186  1  0.35430000  0.28940000  0.55320000  1.0 0.1883950636
C  C187  1  0.07820000  0.74020000  0.41190000  1.0 -0.1504001222
C  C188  1  0.97270000  0.67410000  0.88210000  1.0 -0.1504001222
C  C189  1  0.36820000  0.42100000  0.64710000  1.0 -0.1903444379
C  C190  1  0.38280000  0.31670000  0.59100000  1.0 -0.0745412718
C  C191  1  0.04930000  0.80670000  0.37940000  1.0 -0.1004989926
C  C192  1  0.44380000  0.20210000  0.65120000  1.0 -0.167383277
C  C193  1  0.24480000  0.89760000  0.18220000  1.0 0.6094275255
C  C194  1  0.62140000  0.16660000  0.67020000  1.0 -0.0303378395
C  C195  1  0.93430000  0.88370000  0.32090000  1.0 0.6094275255
C  C196  1  0.24440000  0.52150000  0.61470000  1.0 0.1776121757
C  C197  1  0.89370000  0.72500000  0.85800000  1.0 -0.091260926
C  C198  1  0.52380000  0.15540000  0.67770000  1.0 -0.1004989926
C  C199  1  0.56600000  0.26480000  0.60770000  1.0 -0.1504001222
C  C200  1  0.64520000  0.22010000  0.63400000  1.0 -0.1004989926
C  C201  1  0.58060000  0.94000000  0.87870000  1.0 0.3323591937
C  C202  1  0.40210000  0.01140000  0.90790000  1.0 -0.3349118094
C  C203  1  0.39140000  0.01020000  0.67210000  1.0 0.3432102342
C  C204  1  0.52120000  0.97550000  0.60410000  1.0 -0.3803080033
C  C205  1  0.56020000  0.97160000  0.95980000  1.0 -0.4145083587
C  C206  1  0.46170000  0.85170000  0.66120000  1.0 -0.3803080033
C  C207  1  0.03000000  0.08700000  0.80330000  1.0 0.1290163939
C  C208  1  0.04400000  0.09940000  0.79610000  1.0 0.2280760769
N  N1  1  0.59470000  0.61680000  0.02290000  1.0 -0.4194238388
N  N2  1  0.62440000  0.49050000  0.96010000  1.0 -0.2585027303
N  N3  1  0.73900000  0.49920000  0.07990000  1.0 -0.2838688801
N  N4  1  0.87450000  0.41990000  0.46800000  1.0 -0.4194238388
N  N5  1  0.85380000  0.54200000  0.53220000  1.0 -0.2585027303
N  N6  1  0.77270000  0.37570000  0.01580000  1.0 -0.4293745021
N  N7  1  0.73380000  0.54170000  0.41220000  1.0 -0.2911161493
N  N8  1  0.71390000  0.66600000  0.47660000  1.0 -0.4194238388
N  N9  1  0.48450000  0.02970000  0.08630000  1.0 0.0777239118
N  N10  1  0.55870000  0.04800000  0.35880000  1.0 0.0534249757
N  N11  1  0.40530000  0.38320000  0.97710000  1.0 -0.4194238388
N  N12  1  0.37560000  0.50950000  0.03990000  1.0 -0.2585027303
N  N13  1  0.26100000  0.50080000  0.92010000  1.0 -0.2838688801
N  N14  1  0.12550000  0.58010000  0.53200000  1.0 -0.4194238388
N  N15  1  0.14620000  0.45800000  0.46780000  1.0 -0.2585027303
N  N16  1  0.22730000  0.62430000  0.98420000  1.0 -0.4293745021
N  N17  1  0.26620000  0.45830000  0.58780000  1.0 -0.2911161493
N  N18  1  0.28610000  0.33400000  0.52340000  1.0 -0.4194238388
N  N19  1  0.51550000  0.97030000  0.91370000  1.0 0.0777239118
N  N20  1  0.44130000  0.95200000  0.64120000  1.0 0.0534249757
O  O1  1  0.67140000  0.91640000  0.22920000  1.0 -0.6007200142
O  O2  1  0.31280000  0.93790000  0.27135000  1.0 -0.6596590142
O  O3  1  0.16380000  0.07480000  0.21300000  1.0 -0.6596590142
O  O4  1  0.82100000  0.10430000  0.78728000  1.0 -0.6085706453
O  O5  1  0.82790000  0.10030000  0.27200000  1.0 -0.6007200142
O  O6  1  0.69560000  0.05090000  0.82372000  1.0 -0.6338430504
O  O7  1  0.83400000  0.94920000  0.68331000  1.0 -0.6007200142
O  O8  1  0.99030000  0.10810000  0.26825000  1.0 -0.594463871
O  O9  1  0.46700000  0.11500000  0.24420000  1.0 -0.4599758099
O  O10  1  0.21750000  0.93460000  0.82851000  1.0 -0.6007200142
O  O11  1  0.71240000  0.89070000  0.71940000  1.0 -0.5505525927
O  O12  1  0.34300000  0.89620000  0.78223000  1.0 -0.4971006523
O  O13  1  0.25980000  0.16310000  0.18620000  1.0 -0.5505525927
O  O14  1  0.14420000  0.11370000  0.69990000  1.0 -0.6085706453
O  O15  1  0.88130000  0.88480000  0.19840000  1.0 -0.1838456663
O  O16  1  0.97120000  0.96680000  0.22257000  1.0 -0.3415903112
O  O17  1  0.20750000  0.86800000  0.30820000  1.0 -0.5386237363
O  O18  1  0.50530000  0.93820000  0.22430000  1.0 -0.564800189
O  O19  1  0.00700000  0.06450000  0.68643000  1.0 -0.6219795804
O  O20  1  0.44260000  0.06410000  0.15530000  1.0 -0.3664948802
O  O21  1  0.67490000  0.01250000  0.30560000  1.0 -0.4038502436
O  O22  1  0.32860000  0.08360000  0.77080000  1.0 -0.594463871
O  O23  1  0.68720000  0.06210000  0.72865000  1.0 -0.6596590142
O  O24  1  0.83620000  0.92520000  0.78700000  1.0 -0.6596590142
O  O25  1  0.17900000  0.89570000  0.21272000  1.0 -0.6085706453
O  O26  1  0.17210000  0.89970000  0.72800000  1.0 -0.6007200142
O  O27  1  0.30440000  0.94910000  0.17628000  1.0 -0.6353503327
O  O28  1  0.16600000  0.05080000  0.31669000  1.0 -0.6085706453
O  O29  1  0.00970000  0.89190000  0.73175000  1.0 -0.594463871
O  O30  1  0.53300000  0.88500000  0.75580000  1.0 -0.4599758099
O  O31  1  0.78250000  0.06540000  0.17149000  1.0 -0.6007200142
O  O32  1  0.28760000  0.10930000  0.28060000  1.0 -0.5505525927
O  O33  1  0.65700000  0.10380000  0.21777000  1.0 -0.4971006523
O  O34  1  0.74020000  0.83690000  0.81380000  1.0 -0.5505525927
O  O35  1  0.85580000  0.88630000  0.30010000  1.0 -0.6085706453
O  O36  1  0.11870000  0.11520000  0.80160000  1.0 -0.1838456663
O  O37  1  0.02880000  0.03320000  0.77743000  1.0 -0.3415903112
O  O38  1  0.79250000  0.13200000  0.69180000  1.0 -0.5386237363
O  O39  1  0.49470000  0.06180000  0.77570000  1.0 -0.564800189
O  O40  1  0.99300000  0.93550000  0.31357000  1.0 -0.6219795804
O  O41  1  0.55740000  0.93590000  0.84470000  1.0 -0.3664948802
O  O42  1  0.32510000  0.98750000  0.69440000  1.0 -0.4038502436
