# DDEC6 charges by PACMAN v1.1 (https://github.com/mtap-research/PACMAN-charge/)
data_WIPCOQ_ASR_pacman
_symmetry_space_group_name_H-M   'P 1'
_cell_length_a   15.01400000
_cell_length_b   15.01400000
_cell_length_c   23.04200000
_cell_angle_alpha   79.36420000
_cell_angle_beta   100.63600000
_cell_angle_gamma   68.61700000
_symmetry_Int_Tables_number   1
_chemical_formula_structural   CdH18C21NO5
_chemical_formula_sum   'Cd8 H144 C168 N8 O40'
_cell_volume   4569.93931620
_cell_formula_units_Z   8
loop_
 _symmetry_equiv_pos_site_id
 _symmetry_equiv_pos_as_xyz
  1  'x, y, z'
loop_
 _atom_site_type_symbol
 _atom_site_label
 _atom_site_symmetry_multiplicity
 _atom_site_fract_x
 _atom_site_fract_y
 _atom_site_fract_z
 _atom_site_occupancy
 _atom_site_charge
Cd  Cd1  1  0.60538000  0.88038000  0.99716000  1.0 0.9250008092
Cd  Cd2  1  0.80505000  0.66123000  0.96303000  1.0 0.9068244919
Cd  Cd3  1  0.88038000  0.60538000  0.50284000  1.0 0.9250008092
Cd  Cd4  1  0.66123000  0.80505000  0.53697000  1.0 0.9068244919
Cd  Cd5  1  0.39462000  0.11962000  0.00284000  1.0 0.9250008092
Cd  Cd6  1  0.19495000  0.33877000  0.03696000  1.0 0.9068244919
Cd  Cd7  1  0.11962000  0.39462000  0.49716000  1.0 0.9250008092
Cd  Cd8  1  0.33877000  0.19495000  0.46303000  1.0 0.9068244919
H  H1  1  0.90670000  0.87870000  0.84370000  1.0 0.1291977391
H  H2  1  0.01100000  0.93940000  0.80460000  1.0 0.1291977391
H  H3  1  0.23990000  0.67170000  0.87900000  1.0 0.1291977391
H  H4  1  0.13680000  0.60900000  0.91790000  1.0 0.1182983714
H  H5  1  0.32740000  0.80840000  0.75990000  1.0 0.1384005482
H  H6  1  0.49870000  0.74630000  0.79880000  1.0 0.1182983714
H  H7  1  0.45730000  0.75210000  0.96710000  1.0 0.1182983714
H  H8  1  0.28790000  0.82010000  0.92560000  1.0 0.1291977391
H  H9  1  0.97150000  0.77590000  0.01550000  1.0 0.1182983714
H  H10  1  0.12200000  0.78060000  0.06050000  1.0 0.1291977391
H  H11  1  0.01690000  0.86890000  0.19590000  1.0 0.146282509
H  H12  1  0.86460000  0.88580000  0.14880000  1.0 0.1291977391
H  H13  1  0.14710000  0.94490000  0.06080000  1.0 0.1384005482
H  H14  1  0.26840000  0.96220000  0.01660000  1.0 0.1182983714
H  H15  1  0.48100000  0.74180000  0.15760000  1.0 0.1291977391
H  H16  1  0.35950000  0.72310000  0.20190000  1.0 0.1384005482
H  H17  1  0.98290000  0.57430000  0.08080000  1.0 0.1384005482
H  H18  1  0.06310000  0.50090000  0.17390000  1.0 0.0707549378
H  H19  1  0.72600000  0.63140000  0.08280000  1.0 0.1182983714
H  H20  1  0.09760000  0.31440000  0.38310000  1.0 0.1125030071
H  H21  1  0.01660000  0.35780000  0.27770000  1.0 0.0501067791
H  H22  1  0.98840000  0.58660000  0.38670000  1.0 0.1182983714
H  H23  1  0.85090000  0.71030000  0.28720000  1.0 0.1125030071
H  H24  1  0.95112000  0.71552000  0.28060000  1.0 0.1033081574
H  H25  1  0.88520000  0.69460000  0.22820000  1.0 0.1125030071
H  H26  1  0.68090000  0.60890000  0.17820000  1.0 0.1182983714
H  H27  1  0.76490000  0.53430000  0.23700000  1.0 0.1033081574
H  H28  1  0.74090000  0.64810000  0.22230000  1.0 0.1125030071
H  H29  1  0.77620000  0.58480000  0.18900000  1.0 0.0556466505
H  H30  1  0.93260000  0.64340000  0.28300000  1.0 0.0501067791
H  H31  1  0.07400000  0.27220000  0.29020000  1.0 0.1182983714
H  H32  1  0.95910000  0.32670000  0.25880000  1.0 0.1033081574
H  H33  1  0.03320000  0.35520000  0.22770000  1.0 0.1125030071
H  H34  1  0.11930000  0.51650000  0.22650000  1.0 0.1182983714
H  H35  1  0.13700000  0.42120000  0.20340000  1.0 0.1182983714
H  H36  1  0.13910000  0.51550000  0.16210000  1.0 0.1125030071
H  H37  1  0.87870000  0.90670000  0.65630000  1.0 0.1291977391
H  H38  1  0.93940000  0.01100000  0.69540000  1.0 0.1291977391
H  H39  1  0.67170000  0.23990000  0.62100000  1.0 0.1291977391
H  H40  1  0.60900000  0.13680000  0.58210000  1.0 0.1182983714
H  H41  1  0.80840000  0.32740000  0.74010000  1.0 0.1384005482
H  H42  1  0.74630000  0.49870000  0.70120000  1.0 0.1182983714
H  H43  1  0.75210000  0.45730000  0.53290000  1.0 0.1182983714
H  H44  1  0.82010000  0.28790000  0.57440000  1.0 0.1291977391
H  H45  1  0.77590000  0.97150000  0.48450000  1.0 0.1182983714
H  H46  1  0.78060000  0.12200000  0.43950000  1.0 0.1291977391
H  H47  1  0.86890000  0.01690000  0.30410000  1.0 0.146282509
H  H48  1  0.88580000  0.86460000  0.35120000  1.0 0.1291977391
H  H49  1  0.94490000  0.14710000  0.43920000  1.0 0.1384005482
H  H50  1  0.96220000  0.26840000  0.48340000  1.0 0.1182983714
H  H51  1  0.74180000  0.48100000  0.34240000  1.0 0.1291977391
H  H52  1  0.72310000  0.35950000  0.29810000  1.0 0.1384005482
H  H53  1  0.57430000  0.98290000  0.41920000  1.0 0.1384005482
H  H54  1  0.50090000  0.06310000  0.32610000  1.0 0.0707549378
H  H55  1  0.63140000  0.72600000  0.41720000  1.0 0.1182983714
H  H56  1  0.31440000  0.09760000  0.11690000  1.0 0.1125030071
H  H57  1  0.35780000  0.01660000  0.22230000  1.0 0.0501067791
H  H58  1  0.58660000  0.98840000  0.11330000  1.0 0.1182983714
H  H59  1  0.71030000  0.85090000  0.21280000  1.0 0.1125030071
H  H60  1  0.71552000  0.95112000  0.21940000  1.0 0.1033081574
H  H61  1  0.69460000  0.88520000  0.27180000  1.0 0.1125030071
H  H62  1  0.60890000  0.68090000  0.32180000  1.0 0.1182983714
H  H63  1  0.53430000  0.76490000  0.26300000  1.0 0.1033081574
H  H64  1  0.64810000  0.74090000  0.27770000  1.0 0.1125030071
H  H65  1  0.58480000  0.77620000  0.31100000  1.0 0.0556466505
H  H66  1  0.64340000  0.93260000  0.21700000  1.0 0.0501067791
H  H67  1  0.27220000  0.07400000  0.20980000  1.0 0.1182983714
H  H68  1  0.32670000  0.95910000  0.24120000  1.0 0.1033081574
H  H69  1  0.35520000  0.03320000  0.27230000  1.0 0.1125030071
H  H70  1  0.51650000  0.11930000  0.27350000  1.0 0.1182983714
H  H71  1  0.42120000  0.13700000  0.29660000  1.0 0.1182983714
H  H72  1  0.51550000  0.13910000  0.33790000  1.0 0.1125030071
H  H73  1  0.09330000  0.12130000  0.15630000  1.0 0.1291977391
H  H74  1  0.98900000  0.06060000  0.19540000  1.0 0.1291977391
H  H75  1  0.76010000  0.32830000  0.12100000  1.0 0.1291977391
H  H76  1  0.86320000  0.39100000  0.08210000  1.0 0.1182983714
H  H77  1  0.67260000  0.19160000  0.24010000  1.0 0.1384005482
H  H78  1  0.50130000  0.25370000  0.20120000  1.0 0.1182983714
H  H79  1  0.54270000  0.24790000  0.03290000  1.0 0.1182983714
H  H80  1  0.71210000  0.17990000  0.07440000  1.0 0.1291977391
H  H81  1  0.02850000  0.22410000  0.98450000  1.0 0.1182983714
H  H82  1  0.87800000  0.21940000  0.93950000  1.0 0.1291977391
H  H83  1  0.98310000  0.13110000  0.80410000  1.0 0.146282509
H  H84  1  0.13540000  0.11420000  0.85120000  1.0 0.1291977391
H  H85  1  0.85290000  0.05510000  0.93920000  1.0 0.1384005482
H  H86  1  0.73160000  0.03780000  0.98340000  1.0 0.1182983714
H  H87  1  0.51900000  0.25820000  0.84240000  1.0 0.1291977391
H  H88  1  0.64050000  0.27690000  0.79810000  1.0 0.1384005482
H  H89  1  0.01710000  0.42570000  0.91920000  1.0 0.1384005482
H  H90  1  0.93690000  0.49910000  0.82610000  1.0 0.0707549378
H  H91  1  0.27400000  0.36860000  0.91720000  1.0 0.1182983714
H  H92  1  0.90240000  0.68560000  0.61690000  1.0 0.1125030071
H  H93  1  0.98340000  0.64220000  0.72230000  1.0 0.0501067791
H  H94  1  0.01160000  0.41340000  0.61330000  1.0 0.1182983714
H  H95  1  0.14910000  0.28970000  0.71280000  1.0 0.1125030071
H  H96  1  0.04888000  0.28448000  0.71940000  1.0 0.1033081574
H  H97  1  0.11480000  0.30540000  0.77180000  1.0 0.1125030071
H  H98  1  0.31910000  0.39110000  0.82180000  1.0 0.1182983714
H  H99  1  0.23510000  0.46570000  0.76300000  1.0 0.1033081574
H  H100  1  0.25910000  0.35190000  0.77770000  1.0 0.1125030071
H  H101  1  0.22380000  0.41520000  0.81100000  1.0 0.0556466505
H  H102  1  0.06740000  0.35660000  0.71700000  1.0 0.0501067791
H  H103  1  0.92600000  0.72780000  0.70980000  1.0 0.1182983714
H  H104  1  0.04090000  0.67330000  0.74120000  1.0 0.1033081574
H  H105  1  0.96680000  0.64480000  0.77230000  1.0 0.1125030071
H  H106  1  0.88070000  0.48350000  0.77350000  1.0 0.1182983714
H  H107  1  0.86300000  0.57880000  0.79660000  1.0 0.1182983714
H  H108  1  0.86090000  0.48450000  0.83790000  1.0 0.1125030071
H  H109  1  0.12130000  0.09330000  0.34370000  1.0 0.1291977391
H  H110  1  0.06060000  0.98900000  0.30460000  1.0 0.1291977391
H  H111  1  0.32830000  0.76010000  0.37900000  1.0 0.1291977391
H  H112  1  0.39100000  0.86320000  0.41790000  1.0 0.1182983714
H  H113  1  0.19160000  0.67260000  0.25990000  1.0 0.1384005482
H  H114  1  0.25370000  0.50130000  0.29880000  1.0 0.1182983714
H  H115  1  0.24790000  0.54270000  0.46710000  1.0 0.1182983714
H  H116  1  0.17990000  0.71210000  0.42560000  1.0 0.1291977391
H  H117  1  0.22410000  0.02850000  0.51550000  1.0 0.1182983714
H  H118  1  0.21940000  0.87800000  0.56050000  1.0 0.1291977391
H  H119  1  0.13110000  0.98310000  0.69590000  1.0 0.146282509
H  H120  1  0.11420000  0.13540000  0.64880000  1.0 0.1291977391
H  H121  1  0.05510000  0.85290000  0.56080000  1.0 0.1384005482
H  H122  1  0.03780000  0.73160000  0.51660000  1.0 0.1182983714
H  H123  1  0.25820000  0.51900000  0.65760000  1.0 0.1291977391
H  H124  1  0.27690000  0.64050000  0.70190000  1.0 0.1384005482
H  H125  1  0.42570000  0.01710000  0.58080000  1.0 0.1384005482
H  H126  1  0.49910000  0.93690000  0.67390000  1.0 0.0707549378
H  H127  1  0.36860000  0.27400000  0.58280000  1.0 0.1182983714
H  H128  1  0.68560000  0.90240000  0.88310000  1.0 0.1125030071
H  H129  1  0.64220000  0.98340000  0.77770000  1.0 0.0501067791
H  H130  1  0.41340000  0.01160000  0.88670000  1.0 0.1182983714
H  H131  1  0.28970000  0.14910000  0.78720000  1.0 0.1125030071
H  H132  1  0.28448000  0.04888000  0.78060000  1.0 0.1033081574
H  H133  1  0.30540000  0.11480000  0.72820000  1.0 0.1125030071
H  H134  1  0.39110000  0.31910000  0.67820000  1.0 0.1182983714
H  H135  1  0.46570000  0.23510000  0.73700000  1.0 0.1033081574
H  H136  1  0.35190000  0.25910000  0.72230000  1.0 0.1125030071
H  H137  1  0.41520000  0.22380000  0.68900000  1.0 0.0556466505
H  H138  1  0.35660000  0.06740000  0.78300000  1.0 0.0501067791
H  H139  1  0.72780000  0.92600000  0.79020000  1.0 0.1182983714
H  H140  1  0.67330000  0.04090000  0.75880000  1.0 0.1033081574
H  H141  1  0.64480000  0.96680000  0.72770000  1.0 0.1125030071
H  H142  1  0.48350000  0.88070000  0.72650000  1.0 0.1182983714
H  H143  1  0.57880000  0.86300000  0.70340000  1.0 0.1182983714
H  H144  1  0.48450000  0.86090000  0.66210000  1.0 0.1125030071
C  C1  1  0.94215000  0.69855000  0.90994000  1.0 0.5299713537
C  C2  1  0.01045000  0.73725000  0.88458000  1.0 -0.0372462628
C  C3  1  0.97323000  0.83703000  0.85072000  1.0 -0.0807849848
C  C4  1  0.03602000  0.87342000  0.82770000  1.0 -0.2293347809
C  C5  1  0.13511000  0.81291000  0.83855000  1.0 0.2611029521
C  C6  1  0.17321000  0.71281000  0.87218000  1.0 -0.2364483177
C  C7  1  0.11153000  0.67513000  0.89530000  1.0 -0.0807849848
C  C8  1  0.29284000  0.81024000  0.83590000  1.0 0.2325147837
C  C9  1  0.35398000  0.79518000  0.80190000  1.0 -0.2124905362
C  C10  1  0.45755000  0.76035000  0.82450000  1.0 -0.0372462628
C  C11  1  0.49869000  0.74669000  0.88930000  1.0 -0.0980139598
C  C12  1  0.43192000  0.76512000  0.92490000  1.0 -0.0708532811
C  C13  1  0.33080000  0.80160000  0.90130000  1.0 -0.2124905362
C  C14  1  0.80434000  0.83614000  0.04749000  1.0 0.538269125
C  C15  1  0.89887000  0.83387000  0.07666000  1.0 -0.0807849848
C  C16  1  0.97928000  0.79808000  0.05047000  1.0 -0.0617270898
C  C17  1  0.07037000  0.79737000  0.07900000  1.0 -0.2237782105
C  C18  1  0.08461000  0.82081000  0.13317000  1.0 0.2325147837
C  C19  1  0.00651000  0.85291000  0.15890000  1.0 -0.1973801181
C  C20  1  0.91668000  0.86128000  0.13148000  1.0 -0.0708532811
C  C21  1  0.24103000  0.83203000  0.13572000  1.0 0.2710359022
C  C22  1  0.21383000  0.90423000  0.08012000  1.0 -0.2293347809
C  C23  1  0.28658000  0.91478000  0.05391000  1.0 -0.0708532811
C  C24  1  0.38663000  0.85483000  0.08315000  1.0 -0.0484036654
C  C25  1  0.41420000  0.78240000  0.13846000  1.0 -0.0807849848
C  C26  1  0.34145000  0.77105000  0.16491000  1.0 -0.2293347809
C  C27  1  0.60148000  0.71808000  0.91605000  1.0 0.538269125
C  C28  1  0.46666000  0.86146000  0.05389000  1.0 0.5299713537
C  C29  1  0.93863000  0.58023000  0.10478000  1.0 0.0016681087
C  C30  1  0.99404000  0.53284000  0.16073000  1.0 0.0016681087
C  C31  1  0.92604000  0.54044000  0.19760000  1.0 -0.0372462628
C  C32  1  0.82283000  0.57903000  0.16683000  1.0 0.0356160626
C  C33  1  0.79315000  0.60795000  0.10286000  1.0 -0.0264861938
C  C34  1  0.05980000  0.38120000  0.36191000  1.0 0.0501067791
C  C35  1  0.01397000  0.40637000  0.29801000  1.0 0.0101529018
C  C36  1  0.96317000  0.51077000  0.26622000  1.0 0.0181627479
C  C37  1  0.96093000  0.57533000  0.30170000  1.0 -0.017633914
C  C38  1  0.99947000  0.54107000  0.36355000  1.0 0.0101529018
C  C39  1  0.90740000  0.68340000  0.27180000  1.0 -0.2828811779
C  C40  1  0.74490000  0.59410000  0.20470000  1.0 -0.3210284709
C  C41  1  0.02060000  0.33440000  0.26620000  1.0 -0.2929342761
C  C42  1  0.10840000  0.49260000  0.19110000  1.0 -0.3210284709
C  C43  1  0.69855000  0.94215000  0.59006000  1.0 0.5299713537
C  C44  1  0.73725000  0.01045000  0.61542000  1.0 -0.0372462628
C  C45  1  0.83703000  0.97323000  0.64928000  1.0 -0.0807849848
C  C46  1  0.87342000  0.03602000  0.67230000  1.0 -0.2293347809
C  C47  1  0.81291000  0.13511000  0.66145000  1.0 0.2611029521
C  C48  1  0.71281000  0.17321000  0.62782000  1.0 -0.2364483177
C  C49  1  0.67513000  0.11153000  0.60470000  1.0 -0.0807849848
C  C50  1  0.81024000  0.29284000  0.66410000  1.0 0.2325147837
C  C51  1  0.79518000  0.35398000  0.69810000  1.0 -0.2124905362
C  C52  1  0.76035000  0.45755000  0.67550000  1.0 -0.0372462628
C  C53  1  0.74669000  0.49869000  0.61070000  1.0 -0.0980139598
C  C54  1  0.76512000  0.43192000  0.57510000  1.0 -0.0708532811
C  C55  1  0.80160000  0.33080000  0.59870000  1.0 -0.2124905362
C  C56  1  0.83614000  0.80434000  0.45251000  1.0 0.538269125
C  C57  1  0.83387000  0.89887000  0.42334000  1.0 -0.0807849848
C  C58  1  0.79808000  0.97928000  0.44953000  1.0 -0.0617270898
C  C59  1  0.79737000  0.07037000  0.42100000  1.0 -0.2237782105
C  C60  1  0.82081000  0.08461000  0.36683000  1.0 0.2325147837
C  C61  1  0.85291000  0.00651000  0.34110000  1.0 -0.1973801181
C  C62  1  0.86128000  0.91668000  0.36852000  1.0 -0.0708532811
C  C63  1  0.83203000  0.24103000  0.36428000  1.0 0.2710359022
C  C64  1  0.90423000  0.21383000  0.41988000  1.0 -0.2293347809
C  C65  1  0.91478000  0.28658000  0.44609000  1.0 -0.0708532811
C  C66  1  0.85483000  0.38663000  0.41685000  1.0 -0.0484036654
C  C67  1  0.78240000  0.41420000  0.36154000  1.0 -0.0807849848
C  C68  1  0.77105000  0.34145000  0.33509000  1.0 -0.2293347809
C  C69  1  0.71808000  0.60148000  0.58395000  1.0 0.538269125
C  C70  1  0.86146000  0.46666000  0.44611000  1.0 0.5299713537
C  C71  1  0.58023000  0.93863000  0.39522000  1.0 0.0016681087
C  C72  1  0.53284000  0.99404000  0.33927000  1.0 0.0016681087
C  C73  1  0.54044000  0.92604000  0.30240000  1.0 -0.0372462628
C  C74  1  0.57903000  0.82283000  0.33317000  1.0 0.0356160626
C  C75  1  0.60795000  0.79315000  0.39714000  1.0 -0.0264861938
C  C76  1  0.38120000  0.05980000  0.13809000  1.0 0.0501067791
C  C77  1  0.40637000  0.01397000  0.20199000  1.0 0.0101529018
C  C78  1  0.51077000  0.96317000  0.23378000  1.0 0.0181627479
C  C79  1  0.57533000  0.96093000  0.19830000  1.0 -0.017633914
C  C80  1  0.54107000  0.99947000  0.13645000  1.0 0.0101529018
C  C81  1  0.68340000  0.90740000  0.22820000  1.0 -0.2828811779
C  C82  1  0.59410000  0.74490000  0.29530000  1.0 -0.3210284709
C  C83  1  0.33440000  0.02060000  0.23380000  1.0 -0.2929342761
C  C84  1  0.49260000  0.10840000  0.30890000  1.0 -0.3210284709
C  C85  1  0.05785000  0.30145000  0.09006000  1.0 0.5299713537
C  C86  1  0.98955000  0.26275000  0.11542000  1.0 -0.0372462628
C  C87  1  0.02677000  0.16297000  0.14928000  1.0 -0.0807849848
C  C88  1  0.96398000  0.12658000  0.17230000  1.0 -0.2293347809
C  C89  1  0.86489000  0.18709000  0.16145000  1.0 0.2611029521
C  C90  1  0.82679000  0.28719000  0.12782000  1.0 -0.2364483177
C  C91  1  0.88847000  0.32487000  0.10470000  1.0 -0.0807849848
C  C92  1  0.70716000  0.18976000  0.16410000  1.0 0.2325147837
C  C93  1  0.64602000  0.20482000  0.19810000  1.0 -0.2124905362
C  C94  1  0.54245000  0.23965000  0.17550000  1.0 -0.0372462628
C  C95  1  0.50131000  0.25331000  0.11070000  1.0 -0.0980139598
C  C96  1  0.56808000  0.23488000  0.07510000  1.0 -0.0708532811
C  C97  1  0.66920000  0.19840000  0.09870000  1.0 -0.2124905362
C  C98  1  0.19566000  0.16386000  0.95251000  1.0 0.538269125
C  C99  1  0.10113000  0.16613000  0.92334000  1.0 -0.0807849848
C  C100  1  0.02072000  0.20192000  0.94953000  1.0 -0.0617270898
C  C101  1  0.92963000  0.20263000  0.92100000  1.0 -0.2237782105
C  C102  1  0.91539000  0.17919000  0.86683000  1.0 0.2325147837
C  C103  1  0.99349000  0.14709000  0.84110000  1.0 -0.1973801181
C  C104  1  0.08332000  0.13872000  0.86852000  1.0 -0.0708532811
C  C105  1  0.75897000  0.16797000  0.86428000  1.0 0.2710359022
C  C106  1  0.78617000  0.09577000  0.91988000  1.0 -0.2293347809
C  C107  1  0.71342000  0.08522000  0.94609000  1.0 -0.0708532811
C  C108  1  0.61337000  0.14517000  0.91685000  1.0 -0.0484036654
C  C109  1  0.58580000  0.21760000  0.86154000  1.0 -0.0807849848
C  C110  1  0.65855000  0.22895000  0.83509000  1.0 -0.2293347809
C  C111  1  0.39852000  0.28192000  0.08395000  1.0 0.538269125
C  C112  1  0.53334000  0.13854000  0.94611000  1.0 0.5299713537
C  C113  1  0.06137000  0.41977000  0.89522000  1.0 0.0016681087
C  C114  1  0.00596000  0.46716000  0.83927000  1.0 0.0016681087
C  C115  1  0.07396000  0.45956000  0.80240000  1.0 -0.0372462628
C  C116  1  0.17717000  0.42097000  0.83317000  1.0 0.0348326564
C  C117  1  0.20685000  0.39205000  0.89714000  1.0 -0.0264861938
C  C118  1  0.94020000  0.61880000  0.63809000  1.0 0.0501067791
C  C119  1  0.98603000  0.59363000  0.70199000  1.0 0.0101529018
C  C120  1  0.03683000  0.48923000  0.73378000  1.0 0.0181627479
C  C121  1  0.03907000  0.42467000  0.69830000  1.0 -0.017633914
C  C122  1  0.00053000  0.45893000  0.63645000  1.0 0.0101529018
C  C123  1  0.09260000  0.31660000  0.72820000  1.0 -0.2828811779
C  C124  1  0.25510000  0.40590000  0.79530000  1.0 -0.3210284709
C  C125  1  0.97940000  0.66560000  0.73380000  1.0 -0.2929342761
C  C126  1  0.89160000  0.50740000  0.80890000  1.0 -0.3210284709
C  C127  1  0.30145000  0.05785000  0.40994000  1.0 0.5299713537
C  C128  1  0.26275000  0.98955000  0.38458000  1.0 -0.0372462628
C  C129  1  0.16297000  0.02677000  0.35072000  1.0 -0.0807849848
C  C130  1  0.12658000  0.96398000  0.32770000  1.0 -0.2293347809
C  C131  1  0.18709000  0.86489000  0.33855000  1.0 0.2611029521
C  C132  1  0.28719000  0.82679000  0.37218000  1.0 -0.2364483177
C  C133  1  0.32487000  0.88847000  0.39530000  1.0 -0.0807849848
C  C134  1  0.18976000  0.70716000  0.33590000  1.0 0.2325147837
C  C135  1  0.20482000  0.64602000  0.30190000  1.0 -0.2124905362
C  C136  1  0.23965000  0.54245000  0.32450000  1.0 -0.0372462628
C  C137  1  0.25331000  0.50131000  0.38930000  1.0 -0.0980139598
C  C138  1  0.23488000  0.56808000  0.42490000  1.0 -0.0708532811
C  C139  1  0.19840000  0.66920000  0.40130000  1.0 -0.2124905362
C  C140  1  0.16386000  0.19566000  0.54749000  1.0 0.538269125
C  C141  1  0.16613000  0.10113000  0.57666000  1.0 -0.0807849848
C  C142  1  0.20192000  0.02072000  0.55047000  1.0 -0.0617270898
C  C143  1  0.20263000  0.92963000  0.57900000  1.0 -0.2237782105
C  C144  1  0.17919000  0.91539000  0.63317000  1.0 0.2325147837
C  C145  1  0.14709000  0.99349000  0.65890000  1.0 -0.1973801181
C  C146  1  0.13872000  0.08332000  0.63148000  1.0 -0.0708532811
C  C147  1  0.16797000  0.75897000  0.63572000  1.0 0.2710359022
C  C148  1  0.09577000  0.78617000  0.58012000  1.0 -0.2293347809
C  C149  1  0.08522000  0.71342000  0.55391000  1.0 -0.0708532811
C  C150  1  0.14517000  0.61337000  0.58315000  1.0 -0.0484036654
C  C151  1  0.21760000  0.58580000  0.63846000  1.0 -0.0807849848
C  C152  1  0.22895000  0.65855000  0.66491000  1.0 -0.2293347809
C  C153  1  0.28192000  0.39852000  0.41605000  1.0 0.538269125
C  C154  1  0.13854000  0.53334000  0.55389000  1.0 0.5299713537
C  C155  1  0.41977000  0.06137000  0.60478000  1.0 0.0016681087
C  C156  1  0.46716000  0.00596000  0.66073000  1.0 0.0016681087
C  C157  1  0.45956000  0.07396000  0.69760000  1.0 -0.0372462628
C  C158  1  0.42097000  0.17717000  0.66683000  1.0 0.0348326564
C  C159  1  0.39205000  0.20685000  0.60286000  1.0 -0.0264861938
C  C160  1  0.61880000  0.94020000  0.86191000  1.0 0.0501067791
C  C161  1  0.59363000  0.98603000  0.79801000  1.0 0.0101529018
C  C162  1  0.48923000  0.03683000  0.76622000  1.0 0.0181627479
C  C163  1  0.42467000  0.03907000  0.80170000  1.0 -0.017633914
C  C164  1  0.45893000  0.00053000  0.86355000  1.0 0.0101529018
C  C165  1  0.31660000  0.09260000  0.77180000  1.0 -0.2828811779
C  C166  1  0.40590000  0.25510000  0.70470000  1.0 -0.3210284709
C  C167  1  0.66560000  0.97940000  0.76620000  1.0 -0.2929342761
C  C168  1  0.50740000  0.89160000  0.69110000  1.0 -0.3210284709
N  N1  1  0.05110000  0.44750000  0.39189000  1.0 -0.2669258788
N  N2  1  0.85863000  0.60323000  0.06872000  1.0 -0.2293347809
N  N3  1  0.44750000  0.05110000  0.10811000  1.0 -0.2669258788
N  N4  1  0.60323000  0.85863000  0.43128000  1.0 -0.2293347809
N  N5  1  0.94890000  0.55250000  0.60811000  1.0 -0.2669258788
N  N6  1  0.14137000  0.39677000  0.93128000  1.0 -0.2293347809
N  N7  1  0.55250000  0.94890000  0.89189000  1.0 -0.2669258788
N  N8  1  0.39677000  0.14137000  0.56872000  1.0 -0.2293347809
O  O1  1  0.85590000  0.76312000  0.89350000  1.0 -0.5248806849
O  O2  1  0.96931000  0.61309000  0.94537000  1.0 -0.5690816715
O  O3  1  0.19012000  0.85230000  0.81176000  1.0 -0.2293347809
O  O4  1  0.78452000  0.82202000  0.99512000  1.0 -0.5611324683
O  O5  1  0.73334000  0.86648000  0.07247000  1.0 -0.5280118957
O  O6  1  0.17451000  0.81951000  0.16480000  1.0 -0.2293347809
O  O7  1  0.63304000  0.72300000  0.96859000  1.0 -0.5690816715
O  O8  1  0.66087000  0.68697000  0.88404000  1.0 -0.5410985127
O  O9  1  0.44045000  0.93519000  0.00895000  1.0 -0.5611324683
O  O10  1  0.55495000  0.80027000  0.07529000  1.0 -0.5122017637
O  O11  1  0.76312000  0.85590000  0.60650000  1.0 -0.5248806849
O  O12  1  0.61309000  0.96931000  0.55463000  1.0 -0.5690816715
O  O13  1  0.85230000  0.19012000  0.68824000  1.0 -0.2293347809
O  O14  1  0.82202000  0.78452000  0.50488000  1.0 -0.5611324683
O  O15  1  0.86648000  0.73334000  0.42753000  1.0 -0.5280118957
O  O16  1  0.81951000  0.17451000  0.33520000  1.0 -0.2293347809
O  O17  1  0.72300000  0.63304000  0.53141000  1.0 -0.5690816715
O  O18  1  0.68697000  0.66087000  0.61596000  1.0 -0.5410985127
O  O19  1  0.93519000  0.44045000  0.49105000  1.0 -0.5611324683
O  O20  1  0.80027000  0.55495000  0.42471000  1.0 -0.5122017637
O  O21  1  0.14410000  0.23688000  0.10650000  1.0 -0.5248806849
O  O22  1  0.03069000  0.38691000  0.05463000  1.0 -0.5690816715
O  O23  1  0.80988000  0.14770000  0.18824000  1.0 -0.2293347809
O  O24  1  0.21548000  0.17798000  0.00488000  1.0 -0.5611324683
O  O25  1  0.26666000  0.13352000  0.92753000  1.0 -0.5280118957
O  O26  1  0.82549000  0.18049000  0.83520000  1.0 -0.2293347809
O  O27  1  0.36696000  0.27700000  0.03141000  1.0 -0.5690816715
O  O28  1  0.33913000  0.31303000  0.11596000  1.0 -0.5410985127
O  O29  1  0.55955000  0.06481000  0.99105000  1.0 -0.5611324683
O  O30  1  0.44505000  0.19973000  0.92471000  1.0 -0.5122017637
O  O31  1  0.23688000  0.14410000  0.39350000  1.0 -0.5248806849
O  O32  1  0.38691000  0.03069000  0.44537000  1.0 -0.5690816715
O  O33  1  0.14770000  0.80988000  0.31176000  1.0 -0.2293347809
O  O34  1  0.17798000  0.21548000  0.49512000  1.0 -0.5611324683
O  O35  1  0.13352000  0.26666000  0.57247000  1.0 -0.5280118957
O  O36  1  0.18049000  0.82549000  0.66480000  1.0 -0.2293347809
O  O37  1  0.27700000  0.36696000  0.46859000  1.0 -0.5690816715
O  O38  1  0.31303000  0.33913000  0.38404000  1.0 -0.5410985127
O  O39  1  0.06481000  0.55955000  0.50895000  1.0 -0.5611324683
O  O40  1  0.19973000  0.44505000  0.57529000  1.0 -0.5122017637
