# DDEC6 charges by PACMAN v1.1 (https://github.com/mtap-research/PACMAN-charge/)
data_WIPMAL_ASR_pacman
_symmetry_space_group_name_H-M   'P 1'
_cell_length_a   24.26020000
_cell_length_b   21.14910000
_cell_length_c   16.56050000
_cell_angle_alpha   79.05690000
_cell_angle_beta   58.86010000
_cell_angle_gamma   42.08310000
_symmetry_Int_Tables_number   1
_chemical_formula_structural   Eu2H13C35O12
_chemical_formula_sum   'Eu8 H52 C140 O48'
_cell_volume   4587.01995143
_cell_formula_units_Z   4
loop_
 _symmetry_equiv_pos_site_id
 _symmetry_equiv_pos_as_xyz
  1  'x, y, z'
loop_
 _atom_site_type_symbol
 _atom_site_label
 _atom_site_symmetry_multiplicity
 _atom_site_fract_x
 _atom_site_fract_y
 _atom_site_fract_z
 _atom_site_occupancy
 _atom_site_charge
Eu  Eu1  1  0.74884000  0.69662000  0.11920000  1.0 2.1065084004
Eu  Eu2  1  0.69662000  0.74884000  0.43534000  1.0 2.1028351649
Eu  Eu3  1  0.43534000  0.11920000  0.69662000  1.0 2.1065084004
Eu  Eu4  1  0.11920000  0.43534000  0.74884000  1.0 2.1065084004
Eu  Eu5  1  0.50116000  0.55338000  0.13080000  1.0 2.1028351649
Eu  Eu6  1  0.55338000  0.50116000  0.81466000  1.0 2.1065084004
Eu  Eu7  1  0.81466000  0.13080000  0.55338000  1.0 2.1065084004
Eu  Eu8  1  0.13080000  0.81466000  0.50116000  1.0 2.1028351649
H  H1  1  0.01070000  0.69550000  0.74730000  1.0 0.1395192818
H  H2  1  0.69550000  0.01070000  0.54650000  1.0 0.1395192818
H  H3  1  0.54650000  0.74730000  0.69550000  1.0 0.1395192818
H  H4  1  0.74730000  0.54650000  0.01070000  1.0 0.1395192818
H  H5  1  0.23930000  0.55450000  0.50270000  1.0 0.1395192818
H  H6  1  0.55450000  0.23930000  0.70350000  1.0 0.1395192818
H  H7  1  0.70350000  0.50270000  0.55450000  1.0 0.1395192818
H  H8  1  0.50270000  0.70350000  0.23930000  1.0 0.1395192818
H  H9  1  0.83590000  0.98410000  0.85030000  1.0 0.1194156475
H  H10  1  0.98410000  0.83590000  0.32970000  1.0 0.1194156475
H  H11  1  0.32970000  0.85030000  0.98410000  1.0 0.1194156475
H  H12  1  0.85030000  0.32970000  0.83590000  1.0 0.1194156475
H  H13  1  0.41410000  0.26590000  0.39970000  1.0 0.1194156475
H  H14  1  0.26590000  0.41410000  0.92030000  1.0 0.1194156475
H  H15  1  0.92030000  0.39970000  0.26590000  1.0 0.1194156475
H  H16  1  0.39970000  0.92030000  0.41410000  1.0 0.1194156475
H  H17  1  0.76510000  0.86810000  0.03090000  1.0 0.1194156475
H  H18  1  0.86810000  0.76510000  0.33590000  1.0 0.1194156475
H  H19  1  0.33590000  0.03090000  0.86810000  1.0 0.1194156475
H  H20  1  0.03090000  0.33590000  0.76510000  1.0 0.1194156475
H  H21  1  0.48490000  0.38190000  0.21910000  1.0 0.1194156475
H  H22  1  0.38190000  0.48490000  0.91410000  1.0 0.1194156475
H  H23  1  0.91410000  0.21910000  0.38190000  1.0 0.1194156475
H  H24  1  0.21910000  0.91410000  0.48490000  1.0 0.1194156475
H  H25  1  0.76340000  0.07940000  0.99600000  1.0 0.1086106395
H  H26  1  0.07940000  0.76340000  0.16120000  1.0 0.1086106395
H  H27  1  0.16120000  0.99600000  0.07940000  1.0 0.1086106395
H  H28  1  0.99600000  0.16120000  0.76340000  1.0 0.1086106395
H  H29  1  0.48660000  0.17060000  0.25400000  1.0 0.1086106395
H  H30  1  0.17060000  0.48660000  0.08880000  1.0 0.1086106395
H  H31  1  0.08880000  0.25400000  0.17060000  1.0 0.1086106395
H  H32  1  0.25400000  0.08880000  0.48660000  1.0 0.1086106395
H  H33  1  0.61530000  0.02530000  0.11890000  1.0 0.1194156475
H  H34  1  0.02530000  0.61530000  0.24050000  1.0 0.1194156475
H  H35  1  0.24050000  0.11890000  0.02530000  1.0 0.1194156475
H  H36  1  0.11890000  0.24050000  0.61530000  1.0 0.1194156475
H  H37  1  0.63470000  0.22470000  0.13110000  1.0 0.1194156475
H  H38  1  0.22470000  0.63470000  0.00950000  1.0 0.1194156475
H  H39  1  0.00950000  0.13110000  0.22470000  1.0 0.1194156475
H  H40  1  0.13110000  0.00950000  0.63470000  1.0 0.1194156475
H  H41  1  0.01990000  0.48010000  0.01990000  1.0 0.1291122758
H  H42  1  0.48010000  0.01990000  0.48010000  1.0 0.1194156475
H  H43  1  0.23010000  0.76990000  0.23010000  1.0 0.1291122758
H  H44  1  0.76990000  0.23010000  0.76990000  1.0 0.1194156475
H  H45  1  0.01900000  0.48360000  0.26260000  1.0 0.1291122758
H  H46  1  0.48360000  0.01900000  0.23480000  1.0 0.1291122758
H  H47  1  0.23480000  0.26260000  0.48360000  1.0 0.1291122758
H  H48  1  0.26260000  0.23480000  0.01900000  1.0 0.1291122758
H  H49  1  0.23100000  0.76640000  0.98740000  1.0 0.1291122758
H  H50  1  0.76640000  0.23100000  0.01520000  1.0 0.1291122758
H  H51  1  0.01520000  0.98740000  0.76640000  1.0 0.1291122758
H  H52  1  0.98740000  0.01520000  0.23100000  1.0 0.1291122758
C  C1  1  0.91053000  0.68379000  0.91001000  1.0 0.6763333344
C  C2  1  0.68379000  0.91053000  0.49567000  1.0 0.6763333344
C  C3  1  0.49567000  0.91001000  0.68379000  1.0 0.6763333344
C  C4  1  0.91001000  0.49567000  0.91053000  1.0 0.6763333344
C  C5  1  0.33947000  0.56621000  0.33999000  1.0 0.6763333344
C  C6  1  0.56621000  0.33947000  0.75433000  1.0 0.6763333344
C  C7  1  0.75433000  0.33999000  0.56621000  1.0 0.6763333344
C  C8  1  0.33999000  0.75433000  0.33947000  1.0 0.6763333344
C  C9  1  0.88952000  0.76954000  0.89160000  1.0 -0.042497119
C  C10  1  0.76954000  0.88952000  0.44934000  1.0 -0.042497119
C  C11  1  0.44934000  0.89160000  0.76954000  1.0 -0.042497119
C  C12  1  0.89160000  0.44934000  0.88952000  1.0 -0.042497119
C  C13  1  0.36048000  0.48046000  0.35840000  1.0 -0.042497119
C  C14  1  0.48046000  0.36048000  0.80066000  1.0 -0.042497119
C  C15  1  0.80066000  0.35840000  0.48046000  1.0 -0.042497119
C  C16  1  0.35840000  0.80066000  0.36048000  1.0 -0.042497119
C  C17  1  0.95415000  0.75729000  0.79845000  1.0 -0.094424907
C  C18  1  0.75729000  0.95415000  0.49011000  1.0 -0.0950251258
C  C19  1  0.49011000  0.79845000  0.75729000  1.0 -0.094424907
C  C20  1  0.79845000  0.49011000  0.95415000  1.0 -0.094424907
C  C21  1  0.29585000  0.49271000  0.45155000  1.0 -0.094424907
C  C22  1  0.49271000  0.29585000  0.75989000  1.0 -0.094424907
C  C23  1  0.75989000  0.45155000  0.49271000  1.0 -0.094424907
C  C24  1  0.45155000  0.75989000  0.29585000  1.0 -0.094424907
C  C25  1  0.93306000  0.83826000  0.78314000  1.0 -0.0102542564
C  C26  1  0.83826000  0.93306000  0.44554000  1.0 -0.0102542564
C  C27  1  0.44554000  0.78314000  0.83826000  1.0 -0.0102542564
C  C28  1  0.78314000  0.44554000  0.93306000  1.0 -0.0102542564
C  C29  1  0.31694000  0.41174000  0.46686000  1.0 -0.0102542564
C  C30  1  0.41174000  0.31694000  0.80446000  1.0 -0.0102542564
C  C31  1  0.80446000  0.46686000  0.41174000  1.0 -0.0102542564
C  C32  1  0.46686000  0.80446000  0.31694000  1.0 -0.0102542564
C  C33  1  0.84981000  0.93011000  0.86149000  1.0 -0.1405874676
C  C34  1  0.93011000  0.84981000  0.35859000  1.0 -0.1405874676
C  C35  1  0.35859000  0.86149000  0.93011000  1.0 -0.1405874676
C  C36  1  0.86149000  0.35859000  0.84981000  1.0 -0.1405874676
C  C37  1  0.40019000  0.31989000  0.38851000  1.0 -0.1405874676
C  C38  1  0.31989000  0.40019000  0.89141000  1.0 -0.1405874676
C  C39  1  0.89141000  0.38851000  0.31989000  1.0 -0.1405874676
C  C40  1  0.38851000  0.89141000  0.40019000  1.0 -0.1405874676
C  C41  1  0.78747000  0.94189000  0.95591000  1.0 0.0595072919
C  C42  1  0.94189000  0.78747000  0.31473000  1.0 0.0595072919
C  C43  1  0.31473000  0.95591000  0.94189000  1.0 0.0595072919
C  C44  1  0.95591000  0.31473000  0.78747000  1.0 0.0595072919
C  C45  1  0.46253000  0.30811000  0.29409000  1.0 0.0595072919
C  C46  1  0.30811000  0.46253000  0.93527000  1.0 0.0595072919
C  C47  1  0.93527000  0.29409000  0.30811000  1.0 0.0595072919
C  C48  1  0.29409000  0.93527000  0.46253000  1.0 0.0595072919
C  C49  1  0.80747000  0.86079000  0.96911000  1.0 -0.1405874676
C  C50  1  0.86079000  0.80747000  0.36263000  1.0 -0.1405874676
C  C51  1  0.36263000  0.96911000  0.86079000  1.0 -0.1405874676
C  C52  1  0.96911000  0.36263000  0.80747000  1.0 -0.1405874676
C  C53  1  0.44253000  0.38921000  0.28089000  1.0 -0.1405874676
C  C54  1  0.38921000  0.44253000  0.88737000  1.0 -0.1405874676
C  C55  1  0.88737000  0.28089000  0.38921000  1.0 -0.1405874676
C  C56  1  0.28089000  0.88737000  0.44253000  1.0 -0.1405874676
C  C57  1  0.70343000  0.03665000  0.04175000  1.0 0.0692025462
C  C58  1  0.03665000  0.70343000  0.21817000  1.0 0.0692025462
C  C59  1  0.21817000  0.04175000  0.03665000  1.0 0.0692025462
C  C60  1  0.04175000  0.21817000  0.70343000  1.0 0.0692025462
C  C61  1  0.54657000  0.21335000  0.20825000  1.0 0.0692025462
C  C62  1  0.21335000  0.54657000  0.03183000  1.0 0.0692025462
C  C63  1  0.03183000  0.20825000  0.21335000  1.0 0.0692025462
C  C64  1  0.20825000  0.03183000  0.54657000  1.0 0.0692025462
C  C65  1  0.70777000  0.09743000  0.04757000  1.0 -0.1405874676
C  C66  1  0.09743000  0.70777000  0.14723000  1.0 -0.1405874676
C  C67  1  0.14723000  0.04757000  0.09743000  1.0 -0.1405874676
C  C68  1  0.04757000  0.14723000  0.70777000  1.0 -0.1405874676
C  C69  1  0.54223000  0.15257000  0.20243000  1.0 -0.1405874676
C  C70  1  0.15257000  0.54223000  0.10277000  1.0 -0.1405874676
C  C71  1  0.10277000  0.20243000  0.15257000  1.0 -0.1405874676
C  C72  1  0.20243000  0.10277000  0.54223000  1.0 -0.1405874676
C  C73  1  0.61963000  0.06511000  0.12069000  1.0 -0.1405874676
C  C74  1  0.06511000  0.61963000  0.19457000  1.0 -0.1405874676
C  C75  1  0.19457000  0.12069000  0.06511000  1.0 -0.1405874676
C  C76  1  0.12069000  0.19457000  0.61963000  1.0 -0.1405874676
C  C77  1  0.63037000  0.18489000  0.12931000  1.0 -0.1405874676
C  C78  1  0.18489000  0.63037000  0.05543000  1.0 -0.1405874676
C  C79  1  0.05543000  0.12931000  0.18489000  1.0 -0.134837929
C  C80  1  0.12931000  0.05543000  0.63037000  1.0 -0.134837929
C  C81  1  0.00113000  0.82637000  0.68343000  1.0 0.5747162962
C  C82  1  0.82637000  0.00113000  0.48907000  1.0 0.5747162962
C  C83  1  0.48907000  0.68343000  0.82637000  1.0 0.5747162962
C  C84  1  0.68343000  0.48907000  0.00113000  1.0 0.5747162962
C  C85  1  0.24887000  0.42363000  0.56657000  1.0 0.5747162962
C  C86  1  0.42363000  0.24887000  0.76093000  1.0 0.5747162962
C  C87  1  0.76093000  0.56657000  0.42363000  1.0 0.5747162962
C  C88  1  0.56657000  0.76093000  0.24887000  1.0 0.5747162962
C  C89  1  0.89659000  0.60445000  0.20539000  1.0 0.6563827062
C  C90  1  0.60445000  0.89659000  0.29357000  1.0 0.6563827062
C  C91  1  0.29357000  0.20539000  0.60445000  1.0 0.6563827062
C  C92  1  0.20539000  0.29357000  0.89659000  1.0 0.6563827062
C  C93  1  0.35341000  0.64555000  0.04461000  1.0 0.6563827062
C  C94  1  0.64555000  0.35341000  0.95643000  1.0 0.6563827062
C  C95  1  0.95643000  0.04461000  0.64555000  1.0 0.6563827062
C  C96  1  0.04461000  0.95643000  0.35341000  1.0 0.6563827062
C  C97  1  0.00292000  0.49844000  0.14982000  1.0 -0.0102542564
C  C98  1  0.49844000  0.00292000  0.34882000  1.0 -0.0102542564
C  C99  1  0.34882000  0.14982000  0.49844000  1.0 -0.0102542564
C  C100  1  0.14982000  0.34882000  0.00292000  1.0 -0.0102542564
C  C101  1  0.24708000  0.75156000  0.10018000  1.0 -0.0102542564
C  C102  1  0.75156000  0.24708000  0.90118000  1.0 -0.0102542564
C  C103  1  0.90118000  0.10018000  0.75156000  1.0 -0.0102542564
C  C104  1  0.10018000  0.90118000  0.24708000  1.0 -0.0102542564
C  C105  1  0.05213000  0.44787000  0.05213000  1.0 -0.1218472308
C  C106  1  0.44787000  0.05213000  0.44787000  1.0 -0.1218472308
C  C107  1  0.19787000  0.80213000  0.19787000  1.0 -0.1218472308
C  C108  1  0.80213000  0.19787000  0.80213000  1.0 -0.1218472308
C  C109  1  0.05182000  0.44970000  0.19762000  1.0 -0.1614942623
C  C110  1  0.44970000  0.05182000  0.30086000  1.0 -0.1614942623
C  C111  1  0.30086000  0.19762000  0.44970000  1.0 -0.1614942623
C  C112  1  0.19762000  0.30086000  0.05182000  1.0 -0.1614942623
C  C113  1  0.19818000  0.80030000  0.05238000  1.0 -0.1614942623
C  C114  1  0.80030000  0.19818000  0.94914000  1.0 -0.1614942623
C  C115  1  0.94914000  0.05238000  0.80030000  1.0 -0.1614942623
C  C116  1  0.05238000  0.94914000  0.19818000  1.0 -0.1614942623
C  C117  1  0.14946000  0.35054000  0.14946000  1.0 0.0768213385
C  C118  1  0.35054000  0.14946000  0.35054000  1.0 0.0768213385
C  C119  1  0.10054000  0.89946000  0.10054000  1.0 0.0768213385
C  C120  1  0.89946000  0.10054000  0.89946000  1.0 0.0768213385
C  C121  1  0.20110000  0.29890000  0.20110000  1.0 0.0320230575
C  C122  1  0.29890000  0.20110000  0.29890000  1.0 0.0320230575
C  C123  1  0.04890000  0.95110000  0.04890000  1.0 0.0320230575
C  C124  1  0.95110000  0.04890000  0.95110000  1.0 0.0320230575
C  C125  1  0.18600000  0.35060000  0.26680000  1.0 -0.0304559615
C  C126  1  0.35060000  0.18600000  0.19660000  1.0 -0.0304559615
C  C127  1  0.19660000  0.26680000  0.35060000  1.0 -0.0304559615
C  C128  1  0.26680000  0.19660000  0.18600000  1.0 -0.0304559615
C  C129  1  0.06400000  0.89940000  0.98320000  1.0 -0.0304559615
C  C130  1  0.89940000  0.06400000  0.05340000  1.0 -0.0304559615
C  C131  1  0.05340000  0.98320000  0.89940000  1.0 -0.0304559615
C  C132  1  0.98320000  0.05340000  0.06400000  1.0 -0.0304559615
C  C133  1  0.23360000  0.30300000  0.31500000  1.0 -0.042497119
C  C134  1  0.30300000  0.23360000  0.14840000  1.0 -0.042497119
C  C135  1  0.14840000  0.31500000  0.30300000  1.0 -0.042497119
C  C136  1  0.31500000  0.14840000  0.23360000  1.0 -0.042497119
C  C137  1  0.01640000  0.94700000  0.93500000  1.0 -0.042497119
C  C138  1  0.94700000  0.01640000  0.10160000  1.0 -0.042497119
C  C139  1  0.10160000  0.93500000  0.94700000  1.0 -0.042497119
C  C140  1  0.93500000  0.10160000  0.01640000  1.0 -0.042497119
O  O1  1  0.85579000  0.69619000  0.99685000  1.0 -0.6701862401
O  O2  1  0.69619000  0.85579000  0.45117000  1.0 -0.6701862401
O  O3  1  0.45117000  0.99685000  0.69619000  1.0 -0.6701862401
O  O4  1  0.99685000  0.45117000  0.85579000  1.0 -0.6701862401
O  O5  1  0.39421000  0.55381000  0.25315000  1.0 -0.6701862401
O  O6  1  0.55381000  0.39421000  0.79883000  1.0 -0.6701862401
O  O7  1  0.79883000  0.25315000  0.55381000  1.0 -0.6701862401
O  O8  1  0.25315000  0.79883000  0.39421000  1.0 -0.6701862401
O  O9  1  0.98293000  0.60397000  0.83821000  1.0 -0.6859294808
O  O10  1  0.60397000  0.98293000  0.57489000  1.0 -0.6859294808
O  O11  1  0.57489000  0.83821000  0.60397000  1.0 -0.6859294808
O  O12  1  0.83821000  0.57489000  0.98293000  1.0 -0.6859294808
O  O13  1  0.26707000  0.64603000  0.41179000  1.0 -0.6859294808
O  O14  1  0.64603000  0.26707000  0.67511000  1.0 -0.6859294808
O  O15  1  0.67511000  0.41179000  0.64603000  1.0 -0.6859294808
O  O16  1  0.41179000  0.67511000  0.26707000  1.0 -0.6859294808
O  O17  1  0.09140000  0.74202000  0.62790000  1.0 -0.6214115134
O  O18  1  0.74202000  0.09140000  0.53868000  1.0 -0.6214115134
O  O19  1  0.53868000  0.62790000  0.74202000  1.0 -0.6214115134
O  O20  1  0.62790000  0.53868000  0.09140000  1.0 -0.6214115134
O  O21  1  0.15860000  0.50798000  0.62210000  1.0 -0.6214115134
O  O22  1  0.50798000  0.15860000  0.71132000  1.0 -0.6214115134
O  O23  1  0.71132000  0.62210000  0.50798000  1.0 -0.6214115134
O  O24  1  0.62210000  0.71132000  0.15860000  1.0 -0.6214115134
O  O25  1  0.96597000  0.90325000  0.65817000  1.0 -0.6589078604
O  O26  1  0.90325000  0.96597000  0.47261000  1.0 -0.6589078604
O  O27  1  0.47261000  0.65817000  0.90325000  1.0 -0.6589078604
O  O28  1  0.65817000  0.47261000  0.96597000  1.0 -0.6589078604
O  O29  1  0.28403000  0.34675000  0.59183000  1.0 -0.6589078604
O  O30  1  0.34675000  0.28403000  0.77739000  1.0 -0.6589078604
O  O31  1  0.77739000  0.59183000  0.34675000  1.0 -0.6589078604
O  O32  1  0.59183000  0.77739000  0.28403000  1.0 -0.6589078604
O  O33  1  0.84941000  0.63951000  0.16773000  1.0 -0.6841844654
O  O34  1  0.63951000  0.84941000  0.34335000  1.0 -0.6841844654
O  O35  1  0.34335000  0.16773000  0.63951000  1.0 -0.6841844654
O  O36  1  0.16773000  0.34335000  0.84941000  1.0 -0.6841844654
O  O37  1  0.40059000  0.61049000  0.08227000  1.0 -0.6841844654
O  O38  1  0.61049000  0.40059000  0.90665000  1.0 -0.6841844654
O  O39  1  0.90665000  0.08227000  0.61049000  1.0 -0.6841844654
O  O40  1  0.08227000  0.90665000  0.40059000  1.0 -0.6841844654
O  O41  1  0.86093000  0.65141000  0.28673000  1.0 -0.6589078604
O  O42  1  0.65141000  0.86093000  0.20093000  1.0 -0.6589078604
O  O43  1  0.20093000  0.28673000  0.65141000  1.0 -0.6589078604
O  O44  1  0.28673000  0.20093000  0.86093000  1.0 -0.6589078604
O  O45  1  0.38907000  0.59859000  0.96327000  1.0 -0.6589078604
O  O46  1  0.59859000  0.38907000  0.04907000  1.0 -0.6589078604
O  O47  1  0.04907000  0.96327000  0.59859000  1.0 -0.6589078604
O  O48  1  0.96327000  0.04907000  0.38907000  1.0 -0.6589078604
