# DDEC6 charges by PACMAN v1.1 (https://github.com/mtap-research/PACMAN-charge/)
data_WIPPIW_ion_pacman
_symmetry_space_group_name_H-M   'P 1'
_cell_length_a   23.92430000
_cell_length_b   21.52040000
_cell_length_c   20.60940000
_cell_angle_alpha   69.16480000
_cell_angle_beta   57.21420000
_cell_angle_gamma   53.62110000
_symmetry_Int_Tables_number   1
_chemical_formula_structural   Cd3H32C50NO16
_chemical_formula_sum   'Cd12 H128 C200 N4 O64'
_cell_volume   7172.78457845
_cell_formula_units_Z   4
loop_
 _symmetry_equiv_pos_site_id
 _symmetry_equiv_pos_as_xyz
  1  'x, y, z'
loop_
 _atom_site_type_symbol
 _atom_site_label
 _atom_site_symmetry_multiplicity
 _atom_site_fract_x
 _atom_site_fract_y
 _atom_site_fract_z
 _atom_site_occupancy
 _atom_site_charge
Cd  Cd1  1  0.75946000  0.53366000  0.23626000  1.0 0.9224573992
Cd  Cd2  1  0.47062000  0.23626000  0.53366000  1.0 0.9224573992
Cd  Cd3  1  0.71634000  0.49054000  0.77938000  1.0 0.9224573992
Cd  Cd4  1  0.01374000  0.77938000  0.49054000  1.0 0.9224573992
Cd  Cd5  1  0.15457000  0.34421000  0.98505000  1.0 0.9343642317
Cd  Cd6  1  0.51617000  0.98505000  0.34421000  1.0 0.9343642317
Cd  Cd7  1  0.90579000  0.09543000  0.73383000  1.0 0.9343642317
Cd  Cd8  1  0.26495000  0.73383000  0.09543000  1.0 0.9343642317
Cd  Cd9  1  0.95692000  0.43528000  0.10706000  1.0 1.1051485561
Cd  Cd10  1  0.50074000  0.10706000  0.43528000  1.0 1.1051485561
Cd  Cd11  1  0.81472000  0.29308000  0.74926000  1.0 1.1051485561
Cd  Cd12  1  0.14294000  0.74926000  0.29308000  1.0 1.1051485561
H  H1  1  0.99950000  0.35490000  0.25430000  1.0 0.1382037333
H  H2  1  0.39130000  0.25430000  0.35490000  1.0 0.1382037333
H  H3  1  0.89510000  0.25050000  0.85870000  1.0 0.1382037333
H  H4  1  0.99570000  0.85870000  0.25050000  1.0 0.1382037333
H  H5  1  0.16300000  0.13080000  0.19180000  1.0 0.1382037333
H  H6  1  0.51440000  0.19180000  0.13080000  1.0 0.1382037333
H  H7  1  0.11920000  0.08700000  0.73560000  1.0 0.1382037333
H  H8  1  0.05820000  0.73560000  0.08700000  1.0 0.1382037333
H  H9  1  0.09830000  0.09450000  0.32970000  1.0 0.1295603612
H  H10  1  0.47750000  0.32970000  0.09450000  1.0 0.1295603612
H  H11  1  0.15550000  0.15170000  0.77250000  1.0 0.1295603612
H  H12  1  0.92030000  0.77250000  0.15170000  1.0 0.1295603612
H  H13  1  0.90100000  0.38040000  0.39880000  1.0 0.1295603612
H  H14  1  0.31980000  0.39880000  0.38040000  1.0 0.1295603612
H  H15  1  0.86960000  0.34900000  0.93020000  1.0 0.1295603612
H  H16  1  0.85120000  0.93020000  0.34900000  1.0 0.1295603612
H  H17  1  0.87010000  0.33290000  0.52430000  1.0 0.1382037333
H  H18  1  0.27270000  0.52430000  0.33290000  1.0 0.1382037333
H  H19  1  0.91710000  0.37990000  0.97730000  1.0 0.1382037333
H  H20  1  0.72570000  0.97730000  0.37990000  1.0 0.1382037333
H  H21  1  0.02830000  0.11490000  0.46250000  1.0 0.1191505408
H  H22  1  0.39430000  0.46250000  0.11490000  1.0 0.1191505408
H  H23  1  0.13510000  0.22170000  0.85570000  1.0 0.1191505408
H  H24  1  0.78750000  0.85570000  0.22170000  1.0 0.1191505408
H  H25  1  0.05180000  0.63120000  0.28860000  1.0 0.1295603612
H  H26  1  0.02840000  0.28860000  0.63120000  1.0 0.1295603612
H  H27  1  0.61880000  0.19820000  0.22160000  1.0 0.1295603612
H  H28  1  0.96140000  0.22160000  0.19820000  1.0 0.1295603612
H  H29  1  0.85070000  0.75370000  0.46530000  1.0 0.1382037333
H  H30  1  0.93030000  0.46530000  0.75370000  1.0 0.1382037333
H  H31  1  0.49630000  0.39930000  0.31970000  1.0 0.1382037333
H  H32  1  0.78470000  0.31970000  0.39930000  1.0 0.1382037333
H  H33  1  0.79410000  0.71510000  0.43650000  1.0 0.1295603612
H  H34  1  0.05430000  0.43650000  0.71510000  1.0 0.1295603612
H  H35  1  0.53490000  0.45590000  0.19570000  1.0 0.1295603612
H  H36  1  0.81350000  0.19570000  0.45590000  1.0 0.1295603612
H  H37  1  0.06260000  0.56040000  0.21240000  1.0 0.1191505408
H  H38  1  0.16460000  0.21240000  0.56040000  1.0 0.1191505408
H  H39  1  0.68960000  0.18740000  0.08540000  1.0 0.1191505408
H  H40  1  0.03760000  0.08540000  0.18740000  1.0 0.1191505408
H  H41  1  0.00120000  0.52600000  0.17620000  1.0 0.1382037333
H  H42  1  0.29660000  0.17620000  0.52600000  1.0 0.1382037333
H  H43  1  0.72400000  0.24880000  0.95340000  1.0 0.1382037333
H  H44  1  0.07380000  0.95340000  0.24880000  1.0 0.1382037333
H  H45  1  0.79980000  0.64060000  0.36360000  1.0 0.1191505408
H  H46  1  0.19600000  0.36360000  0.64060000  1.0 0.1191505408
H  H47  1  0.60940000  0.45020000  0.05400000  1.0 0.1191505408
H  H48  1  0.88640000  0.05400000  0.45020000  1.0 0.1191505408
H  H49  1  0.52100000  0.55900000  0.26060000  1.0 0.1129884307
H  H50  1  0.65940000  0.26060000  0.55900000  1.0 0.1129884307
H  H51  1  0.69100000  0.72900000  0.59060000  1.0 0.1129884307
H  H52  1  0.98940000  0.59060000  0.72900000  1.0 0.1129884307
H  H53  1  0.49230000  0.69590000  0.38330000  1.0 0.1191505408
H  H54  1  0.42850000  0.38330000  0.69590000  1.0 0.1191505408
H  H55  1  0.55410000  0.75770000  0.82150000  1.0 0.1191505408
H  H56  1  0.86670000  0.82150000  0.75770000  1.0 0.1191505408
H  H57  1  0.36130000  0.75610000  0.44170000  1.0 0.1129884307
H  H58  1  0.44090000  0.44170000  0.75610000  1.0 0.1129884307
H  H59  1  0.49390000  0.88870000  0.80910000  1.0 0.1129884307
H  H60  1  0.80830000  0.80910000  0.88870000  1.0 0.1129884307
H  H61  1  0.41260000  0.58180000  0.28220000  1.0 0.1008899308
H  H62  1  0.72340000  0.28220000  0.58180000  1.0 0.1008899308
H  H63  1  0.66820000  0.83740000  0.52660000  1.0 0.1008899308
H  H64  1  0.96780000  0.52660000  0.83740000  1.0 0.1008899308
H  H65  1  0.28120000  0.64280000  0.34620000  1.0 0.1129884307
H  H66  1  0.72980000  0.34620000  0.64280000  1.0 0.1129884307
H  H67  1  0.60720000  0.96880000  0.52020000  1.0 0.1129884307
H  H68  1  0.90380000  0.52020000  0.96880000  1.0 0.1129884307
H  H69  1  0.24560000  0.77180000  0.47800000  1.0 0.1191505408
H  H70  1  0.50460000  0.47800000  0.77180000  1.0 0.1191505408
H  H71  1  0.47820000  0.00440000  0.74540000  1.0 0.1191505408
H  H72  1  0.77200000  0.74540000  0.00440000  1.0 0.1191505408
H  H73  1  0.58910000  0.29830000  0.89390000  1.0 0.1295603612
H  H74  1  0.21870000  0.89390000  0.29830000  1.0 0.1295603612
H  H75  1  0.95170000  0.66090000  0.03130000  1.0 0.1295603612
H  H76  1  0.35610000  0.03130000  0.66090000  1.0 0.1295603612
H  H77  1  0.69120000  0.14580000  0.74000000  1.0 0.1295603612
H  H78  1  0.42300000  0.74000000  0.14580000  1.0 0.1295603612
H  H79  1  0.10420000  0.55880000  0.82700000  1.0 0.1295603612
H  H80  1  0.51000000  0.82700000  0.55880000  1.0 0.1295603612
H  H81  1  0.57360000  0.14920000  0.79120000  1.0 0.1295603612
H  H82  1  0.48600000  0.79120000  0.14920000  1.0 0.1295603612
H  H83  1  0.10080000  0.67640000  0.76400000  1.0 0.1295603612
H  H84  1  0.45880000  0.76400000  0.67640000  1.0 0.1295603612
H  H85  1  0.44300000  0.36600000  0.96920000  1.0 0.1191505408
H  H86  1  0.22180000  0.96920000  0.36600000  1.0 0.1191505408
H  H87  1  0.88400000  0.80700000  0.02820000  1.0 0.1191505408
H  H88  1  0.28080000  0.02820000  0.80700000  1.0 0.1191505408
H  H89  1  0.32360000  0.38500000  0.99180000  1.0 0.1382037333
H  H90  1  0.29960000  0.99180000  0.38500000  1.0 0.1295603612
H  H91  1  0.86500000  0.92640000  0.95040000  1.0 0.1295603612
H  H92  1  0.25820000  0.95040000  0.92640000  1.0 0.1295603612
H  H93  1  0.43560000  0.22500000  0.84720000  1.0 0.1295603612
H  H94  1  0.49220000  0.84720000  0.22500000  1.0 0.1295603612
H  H95  1  0.02500000  0.81440000  0.75780000  1.0 0.1295603612
H  H96  1  0.40280000  0.75780000  0.81440000  1.0 0.1295603612
H  H97  1  0.52830000  0.59290000  0.88730000  1.0 0.2597935669
H  H98  1  0.44580000  0.63740000  0.93400000  1.0 0.269913318
H  H99  1  0.50780000  0.66460000  0.96560000  1.0 0.1460178517
H  H100  1  0.46300000  0.62740000  0.03800000  1.0 0.1382037333
H  H101  1  0.55250000  0.57690000  0.98910000  1.0 0.1382037333
H  H102  1  0.47990000  0.52150000  0.92050000  1.0 0.1382037333
H  H103  1  0.53390000  0.48690000  0.96010000  1.0 0.1295603612
H  H104  1  0.44390000  0.53570000  0.00750000  1.0 0.1295603612
H  H105  1  0.99150000  0.88730000  0.59290000  1.0 0.2597935669
H  H106  1  0.98280000  0.93400000  0.63740000  1.0 0.269913318
H  H107  1  0.86200000  0.96560000  0.66460000  1.0 0.1460178517
H  H108  1  0.87160000  0.03800000  0.62740000  1.0 0.1382037333
H  H109  1  0.88150000  0.98910000  0.57690000  1.0 0.1382037333
H  H110  1  0.07810000  0.92050000  0.52150000  1.0 0.1382037333
H  H111  1  0.01910000  0.96010000  0.48690000  1.0 0.1295603612
H  H112  1  0.01290000  0.00750000  0.53570000  1.0 0.1295603612
H  H113  1  0.65710000  0.72170000  0.25850000  1.0 0.2597935669
H  H114  1  0.61260000  0.80420000  0.26720000  1.0 0.269913318
H  H115  1  0.58540000  0.74220000  0.38800000  1.0 0.1460178517
H  H116  1  0.62260000  0.78700000  0.37840000  1.0 0.1382037333
H  H117  1  0.67310000  0.69750000  0.36850000  1.0 0.1382037333
H  H118  1  0.72850000  0.77010000  0.17190000  1.0 0.1382037333
H  H119  1  0.76310000  0.71610000  0.23090000  1.0 0.1295603612
H  H120  1  0.71430000  0.80610000  0.23710000  1.0 0.1295603612
H  H121  1  0.36270000  0.25850000  0.72170000  1.0 0.2597935669
H  H122  1  0.31600000  0.26720000  0.80420000  1.0 0.269913318
H  H123  1  0.28440000  0.38800000  0.74220000  1.0 0.1460178517
H  H124  1  0.21200000  0.37840000  0.78700000  1.0 0.1382037333
H  H125  1  0.26090000  0.36850000  0.69750000  1.0 0.1382037333
H  H126  1  0.32950000  0.17190000  0.77010000  1.0 0.1382037333
H  H127  1  0.28990000  0.23090000  0.71610000  1.0 0.1295603612
H  H128  1  0.24250000  0.23710000  0.80610000  1.0 0.1295603612
C  C1  1  0.02330000  0.30230000  0.26750000  1.0 -0.1421325371
C  C2  1  0.40690000  0.26750000  0.30230000  1.0 -0.1421325371
C  C3  1  0.94770000  0.22670000  0.84310000  1.0 -0.1421325371
C  C4  1  0.98250000  0.84310000  0.22670000  1.0 -0.1421325371
C  C5  1  0.07940000  0.25680000  0.21420000  1.0 0.0201486744
C  C6  1  0.44960000  0.21420000  0.25680000  1.0 0.0201486744
C  C7  1  0.99320000  0.17060000  0.80040000  1.0 0.0201486744
C  C8  1  0.03580000  0.80040000  0.17060000  1.0 0.0201486744
C  C9  1  0.11930000  0.16690000  0.23130000  1.0 -0.0808709465
C  C10  1  0.48250000  0.23130000  0.16690000  1.0 -0.0808709465
C  C11  1  0.08310000  0.13070000  0.76750000  1.0 -0.0808709465
C  C12  1  0.01870000  0.76750000  0.13070000  1.0 -0.0808709465
C  C13  1  0.08160000  0.14660000  0.31500000  1.0 -0.1285013814
C  C14  1  0.45680000  0.31500000  0.14660000  1.0 -0.1285013814
C  C15  1  0.10340000  0.16840000  0.79320000  1.0 -0.1285013814
C  C16  1  0.93500000  0.79320000  0.16840000  1.0 -0.1285013814
C  C17  1  0.03080000  0.19280000  0.36580000  1.0 0.0785918612
C  C18  1  0.41060000  0.36580000  0.19280000  1.0 0.0785918612
C  C19  1  0.05720000  0.21920000  0.83940000  1.0 0.0785918612
C  C20  1  0.88420000  0.83940000  0.21920000  1.0 0.0785918612
C  C21  1  0.99260000  0.27680000  0.35080000  1.0 0.0910889268
C  C22  1  0.37980000  0.35080000  0.27680000  1.0 0.0910889268
C  C23  1  0.97320000  0.25740000  0.87020000  1.0 0.0910889268
C  C24  1  0.89920000  0.87020000  0.25740000  1.0 0.0910889268
C  C25  1  0.93110000  0.32670000  0.41130000  1.0 -0.1574424558
C  C26  1  0.33090000  0.41130000  0.32670000  1.0 -0.1574424558
C  C27  1  0.92330000  0.31890000  0.91910000  1.0 -0.1574424558
C  C28  1  0.83870000  0.91910000  0.31890000  1.0 -0.1574424558
C  C29  1  0.91020000  0.29880000  0.48480000  1.0 -0.0733421572
C  C30  1  0.30620000  0.48480000  0.29880000  1.0 -0.0733421572
C  C31  1  0.95120000  0.33980000  0.94380000  1.0 -0.0733421572
C  C32  1  0.76520000  0.94380000  0.33980000  1.0 -0.0733421572
C  C33  1  0.94700000  0.22000000  0.50360000  1.0 -0.0014275307
C  C34  1  0.32940000  0.50360000  0.22000000  1.0 -0.0014275307
C  C35  1  0.03000000  0.30300000  0.92060000  1.0 -0.0014275307
C  C36  1  0.74640000  0.92060000  0.30300000  1.0 -0.0014275307
C  C37  1  0.00490000  0.16730000  0.44830000  1.0 -0.1688258216
C  C38  1  0.37950000  0.44830000  0.16730000  1.0 -0.1688258216
C  C39  1  0.08270000  0.24510000  0.87050000  1.0 -0.1688258216
C  C40  1  0.80170000  0.87050000  0.24510000  1.0 -0.1688258216
C  C41  1  0.11280000  0.27440000  0.12540000  1.0 0.5683571818
C  C42  1  0.48740000  0.12540000  0.27440000  1.0 0.5683571818
C  C43  1  0.97560000  0.13720000  0.76260000  1.0 0.5683571818
C  C44  1  0.12460000  0.76260000  0.13720000  1.0 0.5683571818
C  C45  1  0.93010000  0.18230000  0.58770000  1.0 0.5683571818
C  C46  1  0.29990000  0.58770000  0.18230000  1.0 0.5683571818
C  C47  1  0.06770000  0.31990000  0.95010000  1.0 0.5683571818
C  C48  1  0.66230000  0.95010000  0.31990000  1.0 0.5683571818
C  C49  1  0.99880000  0.65140000  0.31760000  1.0 -0.1229237128
C  C50  1  0.03220000  0.31760000  0.65140000  1.0 -0.1229237128
C  C51  1  0.59860000  0.25120000  0.21780000  1.0 -0.1229237128
C  C52  1  0.93240000  0.21780000  0.25120000  1.0 -0.1229237128
C  C53  1  0.96010000  0.69830000  0.37050000  1.0 -0.0111684688
C  C54  1  0.97110000  0.37050000  0.69830000  1.0 -0.0111684688
C  C55  1  0.55170000  0.28990000  0.27890000  1.0 -0.0111684688
C  C56  1  0.87950000  0.27890000  0.28990000  1.0 -0.0111684688
C  C57  1  0.87910000  0.72090000  0.42390000  1.0 -0.0910692416
C  C58  1  0.97610000  0.42390000  0.72090000  1.0 -0.0910692416
C  C59  1  0.52910000  0.37090000  0.27390000  1.0 -0.0910692416
C  C60  1  0.82610000  0.27390000  0.37090000  1.0 -0.0910692416
C  C61  1  0.84670000  0.69750000  0.40690000  1.0 -0.1502059353
C  C62  1  0.04890000  0.40690000  0.69750000  1.0 -0.1502059353
C  C63  1  0.55250000  0.40330000  0.20110000  1.0 -0.1502059353
C  C64  1  0.84310000  0.20110000  0.40330000  1.0 -0.1502059353
C  C65  1  0.88650000  0.64990000  0.34950000  1.0 0.0785918612
C  C66  1  0.11410000  0.34950000  0.64990000  1.0 0.0785918612
C  C67  1  0.60010000  0.36350000  0.13590000  1.0 0.0785918612
C  C68  1  0.90050000  0.13590000  0.36350000  1.0 0.0785918612
C  C69  1  0.95950000  0.63030000  0.30350000  1.0 0.0493505102
C  C70  1  0.10670000  0.30350000  0.63030000  1.0 0.0493505102
C  C71  1  0.61970000  0.29050000  0.14330000  1.0 0.0493505102
C  C72  1  0.94650000  0.14330000  0.29050000  1.0 0.0493505102
C  C73  1  0.01000000  0.57780000  0.23980000  1.0 -0.1502059353
C  C74  1  0.17240000  0.23980000  0.57780000  1.0 -0.1502059353
C  C75  1  0.67220000  0.24000000  0.07760000  1.0 -0.1502059353
C  C76  1  0.01020000  0.07760000  0.24000000  1.0 -0.1502059353
C  C77  1  0.97410000  0.55390000  0.22110000  1.0 -0.1009219937
C  C78  1  0.25090000  0.22110000  0.55390000  1.0 -0.1009219937
C  C79  1  0.69610000  0.27590000  0.99910000  1.0 -0.1009219937
C  C80  1  0.02890000  0.99910000  0.27590000  1.0 -0.1009219937
C  C81  1  0.89240000  0.57820000  0.27520000  1.0 -0.0111684688
C  C82  1  0.25420000  0.27520000  0.57820000  1.0 -0.0111684688
C  C83  1  0.67180000  0.35760000  0.99580000  1.0 -0.0111684688
C  C84  1  0.97480000  0.99580000  0.35760000  1.0 -0.0111684688
C  C85  1  0.85190000  0.62450000  0.33310000  1.0 -0.1574424558
C  C86  1  0.19050000  0.33310000  0.62450000  1.0 -0.1574424558
C  C87  1  0.62550000  0.39810000  0.05950000  1.0 -0.1574424558
C  C88  1  0.91690000  0.05950000  0.39810000  1.0 -0.1574424558
C  C89  1  0.00130000  0.72050000  0.38690000  1.0 0.5781341118
C  C90  1  0.89130000  0.38690000  0.72050000  1.0 0.5781341118
C  C91  1  0.52950000  0.24870000  0.35870000  1.0 0.5781341118
C  C92  1  0.86310000  0.35870000  0.24870000  1.0 0.5781341118
C  C93  1  0.85670000  0.54910000  0.25890000  1.0 0.5683571818
C  C94  1  0.33530000  0.25890000  0.54910000  1.0 0.5683571818
C  C95  1  0.70090000  0.39330000  0.91470000  1.0 0.5683571818
C  C96  1  0.99110000  0.91470000  0.39330000  1.0 0.5683571818
C  C97  1  0.49330000  0.59770000  0.29390000  1.0 -0.1927783467
C  C98  1  0.61510000  0.29390000  0.59770000  1.0 -0.1927783467
C  C99  1  0.65230000  0.75670000  0.63490000  1.0 -0.1927783467
C  C100  1  0.95610000  0.63490000  0.75670000  1.0 -0.1927783467
C  C101  1  0.51890000  0.62470000  0.31830000  1.0 -0.0111684688
C  C102  1  0.53810000  0.31830000  0.62470000  1.0 -0.0111684688
C  C103  1  0.62530000  0.73110000  0.71190000  1.0 -0.0111684688
C  C104  1  0.93170000  0.71190000  0.73110000  1.0 -0.0111684688
C  C105  1  0.46980000  0.68080000  0.37140000  1.0 -0.0910692416
C  C106  1  0.47800000  0.37140000  0.68080000  1.0 -0.0910692416
C  C107  1  0.56920000  0.78020000  0.77200000  1.0 -0.0910692416
C  C108  1  0.87860000  0.77200000  0.78020000  1.0 -0.0910692416
C  C109  1  0.39050000  0.71690000  0.40830000  1.0 -0.1830410656
C  C110  1  0.48430000  0.40830000  0.71690000  1.0 -0.1830410656
C  C111  1  0.53310000  0.85950000  0.76570000  1.0 -0.1830410656
C  C112  1  0.84170000  0.76570000  0.85950000  1.0 -0.1830410656
C  C113  1  0.35590000  0.69430000  0.39510000  1.0 0.0493505102
C  C114  1  0.55470000  0.39510000  0.69430000  1.0 0.0493505102
C  C115  1  0.55570000  0.89410000  0.69530000  1.0 0.0493505102
C  C116  1  0.85490000  0.69530000  0.89410000  1.0 0.0493505102
C  C117  1  0.41270000  0.64650000  0.33430000  1.0 0.0323231978
C  C118  1  0.60650000  0.33430000  0.64650000  1.0 0.0323231978
C  C119  1  0.60350000  0.83730000  0.64350000  1.0 0.0323231978
C  C120  1  0.91570000  0.64350000  0.83730000  1.0 0.0323231978
C  C121  1  0.38360000  0.61980000  0.31680000  1.0 -0.1830410656
C  C122  1  0.67980000  0.31680000  0.61980000  1.0 -0.1830410656
C  C123  1  0.63020000  0.86640000  0.57020000  1.0 -0.1830410656
C  C124  1  0.93320000  0.57020000  0.86640000  1.0 -0.1830410656
C  C125  1  0.30280000  0.65820000  0.35920000  1.0 -0.1229237128
C  C126  1  0.67980000  0.35920000  0.65820000  1.0 -0.1229237128
C  C127  1  0.59180000  0.94720000  0.57020000  1.0 -0.1229237128
C  C128  1  0.89080000  0.57020000  0.94720000  1.0 -0.1229237128
C  C129  1  0.24570000  0.71370000  0.41550000  1.0 -0.0111684688
C  C130  1  0.62510000  0.41550000  0.71370000  1.0 -0.0111684688
C  C131  1  0.53630000  0.00430000  0.62490000  1.0 -0.0111684688
C  C132  1  0.83450000  0.62490000  0.00430000  1.0 -0.0111684688
C  C133  1  0.27590000  0.73550000  0.43910000  1.0 -0.2077892326
C  C134  1  0.54950000  0.43910000  0.73550000  1.0 -0.2077892326
C  C135  1  0.51450000  0.97410000  0.70050000  1.0 -0.2077892326
C  C136  1  0.81090000  0.70050000  0.97410000  1.0 -0.2077892326
C  C137  1  0.60980000  0.58720000  0.29140000  1.0 0.5401612468
C  C138  1  0.51160000  0.29140000  0.58720000  1.0 0.5401612468
C  C139  1  0.66280000  0.64020000  0.73840000  1.0 0.5401612468
C  C140  1  0.95860000  0.73840000  0.64020000  1.0 0.5401612468
C  C141  1  0.16210000  0.73630000  0.44430000  1.0 0.5781341118
C  C142  1  0.65730000  0.44430000  0.73630000  1.0 0.5781341118
C  C143  1  0.51370000  0.08790000  0.59270000  1.0 0.5781341118
C  C144  1  0.80570000  0.59270000  0.08790000  1.0 0.5781341118
C  C145  1  0.58560000  0.26980000  0.87060000  1.0 -0.1421325371
C  C146  1  0.27400000  0.87060000  0.26980000  1.0 -0.1421325371
C  C147  1  0.98020000  0.66440000  0.97600000  1.0 -0.1421325371
C  C148  1  0.37940000  0.97600000  0.66440000  1.0 -0.1421325371
C  C149  1  0.65270000  0.21430000  0.81850000  1.0 -0.0111684688
C  C150  1  0.31450000  0.81850000  0.21430000  1.0 -0.0111684688
C  C151  1  0.03570000  0.59730000  0.93550000  1.0 -0.0111684688
C  C152  1  0.43150000  0.93550000  0.59730000  1.0 -0.0111684688
C  C153  1  0.64730000  0.17690000  0.78070000  1.0 -0.0808709465
C  C154  1  0.39510000  0.78070000  0.17690000  1.0 -0.0808709465
C  C155  1  0.07310000  0.60270000  0.85490000  1.0 -0.0808709465
C  C156  1  0.46930000  0.85490000  0.60270000  1.0 -0.0808709465
C  C157  1  0.57630000  0.18610000  0.80370000  1.0 -0.1285013814
C  C158  1  0.43390000  0.80370000  0.18610000  1.0 -0.1285013814
C  C159  1  0.06390000  0.67370000  0.81610000  1.0 -0.1285013814
C  C160  1  0.44630000  0.81610000  0.67370000  1.0 -0.1285013814
C  C161  1  0.51110000  0.24230000  0.85170000  1.0 0.0910889268
C  C162  1  0.39490000  0.85170000  0.24230000  1.0 0.0910889268
C  C163  1  0.00770000  0.73890000  0.85510000  1.0 0.0910889268
C  C164  1  0.39830000  0.85510000  0.73890000  1.0 0.0910889268
C  C165  1  0.51330000  0.28530000  0.88790000  1.0 0.0785918612
C  C166  1  0.31350000  0.88790000  0.28530000  1.0 0.0785918612
C  C167  1  0.96470000  0.73670000  0.93650000  1.0 0.0785918612
C  C168  1  0.36210000  0.93650000  0.73670000  1.0 0.0785918612
C  C169  1  0.44440000  0.33680000  0.94180000  1.0 -0.1502059353
C  C170  1  0.27700000  0.94180000  0.33680000  1.0 -0.1502059353
C  C171  1  0.91320000  0.80560000  0.97300000  1.0 -0.1502059353
C  C172  1  0.30820000  0.97300000  0.80560000  1.0 -0.1502059353
C  C173  1  0.37460000  0.34660000  0.96040000  1.0 -0.1009219937
C  C174  1  0.31840000  0.96040000  0.34660000  1.0 -0.1009219937
C  C175  1  0.90340000  0.87540000  0.93160000  1.0 -0.1009219937
C  C176  1  0.28960000  0.93160000  0.87540000  1.0 -0.1009219937
C  C177  1  0.37360000  0.30420000  0.92360000  1.0 0.0106572032
C  C178  1  0.39860000  0.92360000  0.30420000  1.0 0.0106572032
C  C179  1  0.94580000  0.87640000  0.85140000  1.0 0.0106572032
C  C180  1  0.32640000  0.85140000  0.87640000  1.0 0.0106572032
C  C181  1  0.44110000  0.25150000  0.87050000  1.0 -0.1688258216
C  C182  1  0.43690000  0.87050000  0.25150000  1.0 -0.1688258216
C  C183  1  0.99850000  0.80890000  0.81310000  1.0 -0.1688258216
C  C184  1  0.37950000  0.81310000  0.80890000  1.0 -0.1688258216
C  C185  1  0.73120000  0.19880000  0.79420000  1.0 0.5781341118
C  C186  1  0.27580000  0.79420000  0.19880000  1.0 0.5781341118
C  C187  1  0.05120000  0.51880000  0.97420000  1.0 0.5781341118
C  C188  1  0.45580000  0.97420000  0.51880000  1.0 0.5781341118
C  C189  1  0.30020000  0.31080000  0.93600000  1.0 0.5401612468
C  C190  1  0.45300000  0.93600000  0.31080000  1.0 0.5401612468
C  C191  1  0.93920000  0.94980000  0.79700000  1.0 0.5401612468
C  C192  1  0.31400000  0.79700000  0.94980000  1.0 0.5401612468
C  C193  1  0.50480000  0.61860000  0.98680000  1.0 -0.2914318607
C  C194  1  0.48670000  0.53010000  0.95770000  1.0 -0.2914318607
C  C195  1  0.88980000  0.98680000  0.61860000  1.0 -0.2914318607
C  C196  1  0.02550000  0.95770000  0.53010000  1.0 -0.2914318607
C  C197  1  0.63140000  0.74520000  0.36020000  1.0 -0.2914318607
C  C198  1  0.71990000  0.76330000  0.22450000  1.0 -0.2914318607
C  C199  1  0.26320000  0.36020000  0.74520000  1.0 -0.2914318607
C  C200  1  0.29230000  0.22450000  0.76330000  1.0 -0.2914318607
N  N1  1  0.49060000  0.59760000  0.93560000  1.0 -0.0733421572
N  N2  1  0.97620000  0.93560000  0.59760000  1.0 -0.0733421572
N  N3  1  0.65240000  0.75940000  0.27380000  1.0 -0.0733421572
N  N4  1  0.31440000  0.27380000  0.75940000  1.0 -0.0733421572
O  O1  1  0.17020000  0.22720000  0.08240000  1.0 -0.4217211582
O  O2  1  0.52020000  0.08240000  0.22720000  1.0 -0.4217211582
O  O3  1  0.02280000  0.07980000  0.72980000  1.0 -0.4217211582
O  O4  1  0.16760000  0.72980000  0.07980000  1.0 -0.4217211582
O  O5  1  0.07260000  0.35040000  0.11540000  1.0 -0.6088065185
O  O6  1  0.46160000  0.11540000  0.35040000  1.0 -0.6088065185
O  O7  1  0.89960000  0.17740000  0.78840000  1.0 -0.6088065185
O  O8  1  0.13460000  0.78840000  0.17740000  1.0 -0.6088065185
O  O9  1  0.87320000  0.24020000  0.63500000  1.0 -0.6195256688
O  O10  1  0.25160000  0.63500000  0.24020000  1.0 -0.6195256688
O  O11  1  0.00980000  0.37680000  0.99840000  1.0 -0.6195256688
O  O12  1  0.61500000  0.99840000  0.37680000  1.0 -0.6195256688
O  O13  1  0.95070000  0.11710000  0.60490000  1.0 -0.4516731031
O  O14  1  0.32730000  0.60490000  0.11710000  1.0 -0.4516731031
O  O15  1  0.13290000  0.29930000  0.92270000  1.0 -0.4516731031
O  O16  1  0.64510000  0.92270000  0.29930000  1.0 -0.4516731031
O  O17  1  0.96000000  0.75240000  0.44760000  1.0 -0.491439832
O  O18  1  0.84000000  0.44760000  0.75240000  1.0 -0.491439832
O  O19  1  0.49760000  0.29000000  0.41000000  1.0 -0.491439832
O  O20  1  0.80240000  0.41000000  0.29000000  1.0 -0.491439832
O  O21  1  0.06730000  0.70070000  0.34210000  1.0 -0.5313154139
O  O22  1  0.88990000  0.34210000  0.70070000  1.0 -0.5313154139
O  O23  1  0.54930000  0.18270000  0.36010000  1.0 -0.5313154139
O  O24  1  0.90790000  0.36010000  0.18270000  1.0 -0.5313154139
O  O25  1  0.90430000  0.49810000  0.21030000  1.0 -0.5820009984
O  O26  1  0.38730000  0.21030000  0.49810000  1.0 -0.5820009984
O  O27  1  0.75190000  0.34570000  0.86270000  1.0 -0.5820009984
O  O28  1  0.03970000  0.86270000  0.34570000  1.0 -0.5820009984
O  O29  1  0.78710000  0.58210000  0.28930000  1.0 -0.4766511075
O  O30  1  0.34150000  0.28930000  0.58210000  1.0 -0.4766511075
O  O31  1  0.66790000  0.46290000  0.90850000  1.0 -0.4766511075
O  O32  1  0.96070000  0.90850000  0.46290000  1.0 -0.4766511075
O  O33  1  0.65530000  0.54230000  0.23990000  1.0 -0.491439832
O  O34  1  0.56250000  0.23990000  0.54230000  1.0 -0.491439832
O  O35  1  0.70770000  0.59470000  0.68750000  1.0 -0.491439832
O  O36  1  0.01010000  0.68750000  0.59470000  1.0 -0.491439832
O  O37  1  0.62390000  0.61770000  0.31550000  1.0 -0.5370798387
O  O38  1  0.44290000  0.31550000  0.61770000  1.0 -0.5370798387
O  O39  1  0.63230000  0.62610000  0.80710000  1.0 -0.5370798387
O  O40  1  0.93450000  0.80710000  0.62610000  1.0 -0.5370798387
O  O41  1  0.11300000  0.78100000  0.50060000  1.0 -0.5603850387
O  O42  1  0.60540000  0.50060000  0.78100000  1.0 -0.5603850387
O  O43  1  0.46900000  0.13700000  0.64460000  1.0 -0.5603850387
O  O44  1  0.74940000  0.64460000  0.13700000  1.0 -0.5603850387
O  O45  1  0.14890000  0.71310000  0.41070000  1.0 -0.5603850387
O  O46  1  0.72730000  0.41070000  0.71310000  1.0 -0.5603850387
O  O47  1  0.53690000  0.10110000  0.52270000  1.0 -0.5603850387
O  O48  1  0.83930000  0.52270000  0.10110000  1.0 -0.5603850387
O  O49  1  0.73960000  0.24660000  0.80120000  1.0 -0.5509662904
O  O50  1  0.21260000  0.80120000  0.24660000  1.0 -0.5509662904
O  O51  1  0.00340000  0.51040000  0.03740000  1.0 -0.5509662904
O  O52  1  0.44880000  0.03740000  0.51040000  1.0 -0.5509662904
O  O53  1  0.78550000  0.13830000  0.75950000  1.0 -0.5196378507
O  O54  1  0.31670000  0.75950000  0.13830000  1.0 -0.5196378507
O  O55  1  0.11170000  0.46450000  0.93330000  1.0 -0.5196378507
O  O56  1  0.49050000  0.93330000  0.46450000  1.0 -0.5196378507
O  O57  1  0.28770000  0.28410000  0.90610000  1.0 -0.5128608324
O  O58  1  0.52210000  0.90610000  0.28410000  1.0 -0.5128608324
O  O59  1  0.96590000  0.96230000  0.72790000  1.0 -0.5128608324
O  O60  1  0.34390000  0.72790000  0.96230000  1.0 -0.5128608324
O  O61  1  0.24400000  0.35120000  0.99620000  1.0 -0.5196378507
O  O62  1  0.40860000  0.99620000  0.35120000  1.0 -0.5196378507
O  O63  1  0.89880000  0.00600000  0.84140000  1.0 -0.5196378507
O  O64  1  0.25380000  0.84140000  0.00600000  1.0 -0.5196378507
