# DDEC6 charges by PACMAN v1.1 (https://github.com/mtap-research/PACMAN-charge/)
data_WIRMUH_ASR_pacman
_symmetry_space_group_name_H-M   'P 1'
_cell_length_a   10.75210000
_cell_length_b   11.70770000
_cell_length_c   12.34390000
_cell_angle_alpha   90.00000000
_cell_angle_beta   92.14600000
_cell_angle_gamma   90.00000000
_symmetry_Int_Tables_number   1
_chemical_formula_structural   Cu4H12C16N8O5
_chemical_formula_sum   'Cu8 H24 C32 N16 O10'
_cell_volume   1552.78946832
_cell_formula_units_Z   2
loop_
 _symmetry_equiv_pos_site_id
 _symmetry_equiv_pos_as_xyz
  1  'x, y, z'
loop_
 _atom_site_type_symbol
 _atom_site_label
 _atom_site_symmetry_multiplicity
 _atom_site_fract_x
 _atom_site_fract_y
 _atom_site_fract_z
 _atom_site_occupancy
 _atom_site_charge
Cu  Cu1  1  0.82050000  0.25000000  0.19362000  1.0 0.7537091322
Cu  Cu2  1  0.17950000  0.75000000  0.80638000  1.0 0.7537091322
Cu  Cu3  1  0.18605000  0.62091000  0.29494000  1.0 0.7160349436
Cu  Cu4  1  0.81395000  0.12091000  0.70506000  1.0 0.7160349436
Cu  Cu5  1  0.81395000  0.37909000  0.70506000  1.0 0.7160349436
Cu  Cu6  1  0.18605000  0.87909000  0.29494000  1.0 0.7160349436
Cu  Cu7  1  0.55590000  0.25000000  0.25297000  1.0 0.7876132078
Cu  Cu8  1  0.44410000  0.75000000  0.74703000  1.0 0.7876132078
H  H1  1  0.02220000  0.40100000  0.32310000  1.0 0.0868163001
H  H2  1  0.97780000  0.90100000  0.67690000  1.0 0.0868163001
H  H3  1  0.97780000  0.59900000  0.67690000  1.0 0.0868163001
H  H4  1  0.02220000  0.09900000  0.32310000  1.0 0.0868163001
H  H5  1  0.84650000  0.35530000  0.96290000  1.0 0.1205498747
H  H6  1  0.15350000  0.85530000  0.03710000  1.0 0.1205498747
H  H7  1  0.15350000  0.64470000  0.03710000  1.0 0.1205498747
H  H8  1  0.84650000  0.14470000  0.96290000  1.0 0.1205498747
H  H9  1  0.31680000  0.75000000  0.39470000  1.0 0.3319650836
H  H10  1  0.68320000  0.25000000  0.60530000  1.0 0.3319650836
H  H11  1  0.01040000  0.75000000  0.22180000  1.0 0.3896606413
H  H12  1  0.98960000  0.25000000  0.77820000  1.0 0.3896606413
H  H13  1  0.31030000  0.40450000  0.21140000  1.0 0.0969873689
H  H14  1  0.68970000  0.90450000  0.78860000  1.0 0.0969873689
H  H15  1  0.68970000  0.59550000  0.78860000  1.0 0.0969873689
H  H16  1  0.31030000  0.09550000  0.21140000  1.0 0.0969873689
H  H17  1  0.34490000  0.64220000  0.53290000  1.0 0.1060984157
H  H18  1  0.65510000  0.14220000  0.46710000  1.0 0.1060984157
H  H19  1  0.65510000  0.35780000  0.46710000  1.0 0.1060984157
H  H20  1  0.34490000  0.85780000  0.53290000  1.0 0.1060984157
H  H21  1  0.68880000  0.41140000  0.23660000  1.0 0.3896606413
H  H22  1  0.31120000  0.91140000  0.76340000  1.0 0.3896606413
H  H23  1  0.31120000  0.58860000  0.76340000  1.0 0.3896606413
H  H24  1  0.68880000  0.08860000  0.23660000  1.0 0.3896606413
C  C1  1  0.95910000  0.43030000  0.08100000  1.0 0.1401154359
C  C2  1  0.04090000  0.93030000  0.91900000  1.0 0.1401154359
C  C3  1  0.04090000  0.56970000  0.91900000  1.0 0.1401154359
C  C4  1  0.95910000  0.06970000  0.08100000  1.0 0.1401154359
C  C5  1  0.01640000  0.42520000  0.24970000  1.0 0.1690463074
C  C6  1  0.98360000  0.92520000  0.75030000  1.0 0.1690463074
C  C7  1  0.98360000  0.57480000  0.75030000  1.0 0.1690463074
C  C8  1  0.01640000  0.07480000  0.24970000  1.0 0.1690463074
C  C9  1  0.90760000  0.41230000  0.97780000  1.0 -0.2879269623
C  C10  1  0.09240000  0.91230000  0.02220000  1.0 -0.2879269623
C  C11  1  0.09240000  0.58770000  0.02220000  1.0 -0.2879269623
C  C12  1  0.90760000  0.08770000  0.97780000  1.0 -0.2879269623
C  C13  1  0.04840000  0.51640000  0.10250000  1.0 0.1205498747
C  C14  1  0.95160000  0.01640000  0.89750000  1.0 0.1205498747
C  C15  1  0.95160000  0.48360000  0.89750000  1.0 0.1205498747
C  C16  1  0.04840000  0.98360000  0.10250000  1.0 0.1205498747
C  C17  1  0.40090000  0.51580000  0.42720000  1.0 0.1401154359
C  C18  1  0.59910000  0.01580000  0.57280000  1.0 0.1401154359
C  C19  1  0.59910000  0.48420000  0.57280000  1.0 0.1401154359
C  C20  1  0.40090000  0.98420000  0.42720000  1.0 0.1401154359
C  C21  1  0.35350000  0.42580000  0.27680000  1.0 0.1798269845
C  C22  1  0.64650000  0.92580000  0.72320000  1.0 0.1798269845
C  C23  1  0.64650000  0.57420000  0.72320000  1.0 0.1798269845
C  C24  1  0.35350000  0.07420000  0.27680000  1.0 0.1798269845
C  C25  1  0.40640000  0.58600000  0.51990000  1.0 -0.3145077281
C  C26  1  0.59360000  0.08600000  0.48010000  1.0 -0.3145077281
C  C27  1  0.59360000  0.41400000  0.48010000  1.0 -0.3145077281
C  C28  1  0.40640000  0.91400000  0.51990000  1.0 -0.3145077281
C  C29  1  0.49360000  0.43210000  0.40950000  1.0 0.1401154359
C  C30  1  0.50640000  0.93210000  0.59050000  1.0 0.1401154359
C  C31  1  0.50640000  0.56790000  0.59050000  1.0 0.1401154359
C  C32  1  0.49360000  0.06790000  0.40950000  1.0 0.1401154359
N  N1  1  0.94080000  0.37450000  0.17720000  1.0 -0.3868098758
N  N2  1  0.05920000  0.87450000  0.82280000  1.0 -0.3868098758
N  N3  1  0.05920000  0.62550000  0.82280000  1.0 -0.3868098758
N  N4  1  0.94080000  0.12550000  0.17720000  1.0 -0.3868098758
N  N5  1  0.08290000  0.51100000  0.21430000  1.0 -0.4193503611
N  N6  1  0.91710000  0.01100000  0.78570000  1.0 -0.4193503611
N  N7  1  0.91710000  0.48900000  0.78570000  1.0 -0.4193503611
N  N8  1  0.08290000  0.98900000  0.21430000  1.0 -0.4193503611
N  N9  1  0.31460000  0.50930000  0.34100000  1.0 -0.4385274254
N  N10  1  0.68540000  0.00930000  0.65900000  1.0 -0.4385274254
N  N11  1  0.68540000  0.49070000  0.65900000  1.0 -0.4385274254
N  N12  1  0.31460000  0.99070000  0.34100000  1.0 -0.4385274254
N  N13  1  0.45970000  0.37420000  0.31310000  1.0 -0.3979308657
N  N14  1  0.54030000  0.87420000  0.68690000  1.0 -0.3979308657
N  N15  1  0.54030000  0.62580000  0.68690000  1.0 -0.3979308657
N  N16  1  0.45970000  0.12580000  0.31310000  1.0 -0.3979308657
O  O1  1  0.29300000  0.75000000  0.32800000  1.0 -0.1230645232
O  O2  1  0.70700000  0.25000000  0.67200000  1.0 -0.1230645232
O  O3  1  0.07890000  0.75000000  0.25860000  1.0 -0.7916166835
O  O4  1  0.92110000  0.25000000  0.74140000  1.0 -0.7916166835
O  O5  1  0.67880000  0.35440000  0.19450000  1.0 -0.7609542661
O  O6  1  0.32120000  0.85440000  0.80550000  1.0 -0.7609542661
O  O7  1  0.32120000  0.64560000  0.80550000  1.0 -0.7609542661
O  O8  1  0.67880000  0.14560000  0.19450000  1.0 -0.7609542661
O  O9  1  0.25700000  0.75000000  0.37400000  1.0 -0.1480859272
O  O10  1  0.74300000  0.25000000  0.62600000  1.0 -0.1480859272
