# DDEC6 charges by PACMAN v1.1 (https://github.com/mtap-research/PACMAN-charge/)
data_WIRNAO_ASR_pacman
_symmetry_space_group_name_H-M   'P 1'
_cell_length_a   10.21350000
_cell_length_b   10.21350000
_cell_length_c   10.26810000
_cell_angle_alpha   60.98660000
_cell_angle_beta   119.01300000
_cell_angle_gamma   106.59100000
_symmetry_Int_Tables_number   1
_chemical_formula_structural   CuH8C5N2O
_chemical_formula_sum   'Cu4 H32 C20 N8 O4'
_cell_volume   817.38254608
_cell_formula_units_Z   4
loop_
 _symmetry_equiv_pos_site_id
 _symmetry_equiv_pos_as_xyz
  1  'x, y, z'
loop_
 _atom_site_type_symbol
 _atom_site_label
 _atom_site_symmetry_multiplicity
 _atom_site_fract_x
 _atom_site_fract_y
 _atom_site_fract_z
 _atom_site_occupancy
 _atom_site_charge
Cu  Cu1  1  0.03863000  0.96137000  0.17716000  1.0 0.6288731635
Cu  Cu2  1  0.96137000  0.03863000  0.82284000  1.0 0.6288731635
Cu  Cu3  1  0.37564000  0.37564000  0.50000000  1.0 0.6473708094
Cu  Cu4  1  0.62436000  0.62436000  0.50000000  1.0 0.6473708094
H  H1  1  0.10800000  0.19780000  0.32270000  1.0 0.1032651007
H  H2  1  0.19780000  0.10800000  0.67730000  1.0 0.1032651007
H  H3  1  0.89200000  0.80220000  0.67730000  1.0 0.1032651007
H  H4  1  0.80220000  0.89200000  0.32270000  1.0 0.1032651007
H  H5  1  0.35810000  0.83390000  0.36660000  1.0 0.142052354
H  H6  1  0.83390000  0.35810000  0.63340000  1.0 0.142052354
H  H7  1  0.64190000  0.16610000  0.63340000  1.0 0.142052354
H  H8  1  0.16610000  0.64190000  0.36660000  1.0 0.142052354
H  H9  1  0.54860000  0.36940000  0.30510000  1.0 0.0654465795
H  H10  1  0.36940000  0.54860000  0.69490000  1.0 0.0654465795
H  H11  1  0.45140000  0.63060000  0.69490000  1.0 0.0654465795
H  H12  1  0.63060000  0.45140000  0.30510000  1.0 0.0654465795
H  H13  1  0.60920000  0.54200000  0.25330000  1.0 0.0585978056
H  H14  1  0.54200000  0.60920000  0.74670000  1.0 0.0585978056
H  H15  1  0.39080000  0.45800000  0.74670000  1.0 0.0585978056
H  H16  1  0.45800000  0.39080000  0.25330000  1.0 0.0585978056
H  H17  1  0.43250000  0.49850000  0.19180000  1.0 0.0585978056
H  H18  1  0.49850000  0.43250000  0.80820000  1.0 0.0585978056
H  H19  1  0.56750000  0.50150000  0.80820000  1.0 0.0585978056
H  H20  1  0.50150000  0.56750000  0.19180000  1.0 0.0585978056
H  H21  1  0.71500000  0.80440000  0.02660000  1.0 0.0585978056
H  H22  1  0.80440000  0.71500000  0.97340000  1.0 0.0585978056
H  H23  1  0.28500000  0.19560000  0.97340000  1.0 0.0585978056
H  H24  1  0.19560000  0.28500000  0.02660000  1.0 0.0585978056
H  H25  1  0.82970000  0.68970000  0.08180000  1.0 0.0585978056
H  H26  1  0.68970000  0.82970000  0.91820000  1.0 0.0585978056
H  H27  1  0.17030000  0.31030000  0.91820000  1.0 0.0585978056
H  H28  1  0.31030000  0.17030000  0.08180000  1.0 0.0585978056
H  H29  1  0.73450000  0.78490000  0.89160000  1.0 0.0548344419
H  H30  1  0.78490000  0.73450000  0.10840000  1.0 0.0548344419
H  H31  1  0.26550000  0.21510000  0.10840000  1.0 0.0548344419
H  H32  1  0.21510000  0.26550000  0.89160000  1.0 0.0548344419
C  C1  1  0.78640000  0.78640000  0.00000000  1.0 -0.3136135995
C  C2  1  0.21360000  0.21360000  0.00000000  1.0 -0.3136135995
C  C3  1  0.19750000  0.15310000  0.36280000  1.0 0.1588663995
C  C4  1  0.15310000  0.19750000  0.63720000  1.0 0.1588663995
C  C5  1  0.80250000  0.84690000  0.63720000  1.0 0.1588663995
C  C6  1  0.84690000  0.80250000  0.36280000  1.0 0.1588663995
C  C7  1  0.34750000  0.00730000  0.41050000  1.0 0.1247842253
C  C8  1  0.00730000  0.34750000  0.58950000  1.0 0.1247842253
C  C9  1  0.65250000  0.99270000  0.58950000  1.0 0.1247842253
C  C10  1  0.99270000  0.65250000  0.41050000  1.0 0.1247842253
C  C11  1  0.43150000  0.10530000  0.48850000  1.0 0.1267738432
C  C12  1  0.10530000  0.43150000  0.51150000  1.0 0.1267738432
C  C13  1  0.56850000  0.89470000  0.51150000  1.0 0.1267738432
C  C14  1  0.89470000  0.56850000  0.48850000  1.0 0.1267738432
C  C15  1  0.41420000  0.89940000  0.41960000  1.0 -0.2821506097
C  C16  1  0.89940000  0.41420000  0.58040000  1.0 -0.2821506097
C  C17  1  0.58580000  0.10060000  0.58040000  1.0 -0.2821506097
C  C18  1  0.10060000  0.58580000  0.41960000  1.0 -0.2821506097
C  C19  1  0.53080000  0.46920000  0.28260000  1.0 -0.3136135995
C  C20  1  0.46920000  0.53080000  0.71740000  1.0 -0.3136135995
N  N1  1  0.19790000  0.04070000  0.33140000  1.0 -0.3556667924
N  N2  1  0.04070000  0.19790000  0.66860000  1.0 -0.3556667924
N  N3  1  0.80210000  0.95930000  0.66860000  1.0 -0.3556667924
N  N4  1  0.95930000  0.80210000  0.33140000  1.0 -0.3556667924
N  N5  1  0.33210000  0.19850000  0.45500000  1.0 -0.3713597416
N  N6  1  0.19850000  0.33210000  0.54500000  1.0 -0.3713597416
N  N7  1  0.66790000  0.80150000  0.54500000  1.0 -0.3713597416
N  N8  1  0.80150000  0.66790000  0.45500000  1.0 -0.3713597416
O  O1  1  0.90340000  0.90340000  0.00000000  1.0 -0.3188856304
O  O2  1  0.09660000  0.09660000  0.00000000  1.0 -0.3188856304
O  O3  1  0.53430000  0.46570000  0.42540000  1.0 -0.3326051891
O  O4  1  0.46570000  0.53430000  0.57460000  1.0 -0.3326051891
