# DDEC6 charges by PACMAN v1.1 (https://github.com/mtap-research/PACMAN-charge/)
data_WIRXOO_ion_pacman
_symmetry_space_group_name_H-M   'P 1'
_cell_length_a   14.29950000
_cell_length_b   14.29950000
_cell_length_c   24.38010000
_cell_angle_alpha   90.00000000
_cell_angle_beta   90.00000000
_cell_angle_gamma   120.00000000
_symmetry_Int_Tables_number   1
_chemical_formula_structural   Al3C17ClO14
_chemical_formula_sum   'Al18 C102 Cl6 O84'
_cell_volume   4317.25616640
_cell_formula_units_Z   6
loop_
 _symmetry_equiv_pos_site_id
 _symmetry_equiv_pos_as_xyz
  1  'x, y, z'
loop_
 _atom_site_type_symbol
 _atom_site_label
 _atom_site_symmetry_multiplicity
 _atom_site_fract_x
 _atom_site_fract_y
 _atom_site_fract_z
 _atom_site_occupancy
 _atom_site_charge
Al  Al1  1  0.58420000  0.16840000  0.60180000  1.0 1.7583749622
Al  Al2  1  0.41580000  0.58420000  0.10180000  1.0 1.7583749622
Al  Al3  1  0.83160000  0.41580000  0.60180000  1.0 1.7583749622
Al  Al4  1  0.41580000  0.83160000  0.10180000  1.0 1.7583749622
Al  Al5  1  0.58420000  0.41580000  0.60180000  1.0 1.7583749622
Al  Al6  1  0.16840000  0.58420000  0.10180000  1.0 1.7583749622
Al  Al7  1  0.16840000  0.58420000  0.39820000  1.0 1.7583749622
Al  Al8  1  0.58420000  0.41580000  0.89820000  1.0 1.7583749622
Al  Al9  1  0.41580000  0.83160000  0.39820000  1.0 1.7583749622
Al  Al10  1  0.83160000  0.41580000  0.89820000  1.0 1.7583749622
Al  Al11  1  0.41580000  0.58420000  0.39820000  1.0 1.7583749622
Al  Al12  1  0.58420000  0.16840000  0.89820000  1.0 1.7583749622
Al  Al13  1  0.50000000  0.00000000  0.50000000  1.0 1.6832202703
Al  Al14  1  0.50000000  0.50000000  0.00000000  1.0 1.6853171915
Al  Al15  1  0.00000000  0.50000000  0.50000000  1.0 1.6832202703
Al  Al16  1  0.50000000  0.00000000  0.00000000  1.0 1.6832202703
Al  Al17  1  0.50000000  0.50000000  0.50000000  1.0 1.6853171915
Al  Al18  1  0.00000000  0.50000000  0.00000000  1.0 1.6832202703
C  C1  1  0.62606000  0.98824000  0.59251000  1.0 0.6985621234
C  C2  1  0.63782000  0.62606000  0.09251000  1.0 0.6985621234
C  C3  1  0.01176000  0.63782000  0.59251000  1.0 0.6985621234
C  C4  1  0.37394000  0.01176000  0.09251000  1.0 0.6985621234
C  C5  1  0.36218000  0.37394000  0.59251000  1.0 0.6985621234
C  C6  1  0.98824000  0.36218000  0.09251000  1.0 0.6985621234
C  C7  1  0.98824000  0.62606000  0.40749000  1.0 0.6985621234
C  C8  1  0.62606000  0.63782000  0.90749000  1.0 0.6985621234
C  C9  1  0.63782000  0.01176000  0.40749000  1.0 0.6985621234
C  C10  1  0.01176000  0.37394000  0.90749000  1.0 0.6985621234
C  C11  1  0.37394000  0.36218000  0.40749000  1.0 0.6985621234
C  C12  1  0.36218000  0.98824000  0.90749000  1.0 0.6985621234
C  C13  1  0.37394000  0.01176000  0.40749000  1.0 0.6985621234
C  C14  1  0.36218000  0.37394000  0.90749000  1.0 0.6985621234
C  C15  1  0.98824000  0.36218000  0.40749000  1.0 0.6985621234
C  C16  1  0.62606000  0.98824000  0.90749000  1.0 0.6985621234
C  C17  1  0.63782000  0.62606000  0.40749000  1.0 0.6985621234
C  C18  1  0.01176000  0.63782000  0.90749000  1.0 0.6985621234
C  C19  1  0.01176000  0.37394000  0.59251000  1.0 0.6985621234
C  C20  1  0.37394000  0.36218000  0.09251000  1.0 0.6985621234
C  C21  1  0.36218000  0.98824000  0.59251000  1.0 0.6985621234
C  C22  1  0.98824000  0.62606000  0.09251000  1.0 0.6985621234
C  C23  1  0.62606000  0.63782000  0.59251000  1.0 0.6985621234
C  C24  1  0.63782000  0.01176000  0.09251000  1.0 0.6985621234
C  C25  1  0.69166000  0.92469000  0.67115000  1.0 0.0319809921
C  C26  1  0.76697000  0.69166000  0.17115000  1.0 0.0319809921
C  C27  1  0.07531000  0.76697000  0.67115000  1.0 0.0319809921
C  C28  1  0.30834000  0.07531000  0.17115000  1.0 0.0319809921
C  C29  1  0.23303000  0.30834000  0.67115000  1.0 0.0358842499
C  C30  1  0.92469000  0.23303000  0.17115000  1.0 0.0319809921
C  C31  1  0.92469000  0.69166000  0.32885000  1.0 0.0358842499
C  C32  1  0.69166000  0.76697000  0.82885000  1.0 0.0319809921
C  C33  1  0.76697000  0.07531000  0.32885000  1.0 0.0319809921
C  C34  1  0.07531000  0.30834000  0.82885000  1.0 0.0319809921
C  C35  1  0.30834000  0.23303000  0.32885000  1.0 0.0358842499
C  C36  1  0.23303000  0.92469000  0.82885000  1.0 0.0319809921
C  C37  1  0.30834000  0.07531000  0.32885000  1.0 0.0319809921
C  C38  1  0.23303000  0.30834000  0.82885000  1.0 0.0358842499
C  C39  1  0.92469000  0.23303000  0.32885000  1.0 0.0319809921
C  C40  1  0.69166000  0.92469000  0.82885000  1.0 0.0319809921
C  C41  1  0.76697000  0.69166000  0.32885000  1.0 0.0319809921
C  C42  1  0.07531000  0.76697000  0.82885000  1.0 0.0319809921
C  C43  1  0.07531000  0.30834000  0.67115000  1.0 0.0319809921
C  C44  1  0.30834000  0.23303000  0.17115000  1.0 0.0358842499
C  C45  1  0.23303000  0.92469000  0.67115000  1.0 0.0319809921
C  C46  1  0.92469000  0.69166000  0.17115000  1.0 0.0358842499
C  C47  1  0.69166000  0.76697000  0.67115000  1.0 0.0319809921
C  C48  1  0.76697000  0.07531000  0.17115000  1.0 0.0319809921
C  C49  1  0.63882000  0.90089000  0.62004000  1.0 -0.161620219
C  C50  1  0.73793000  0.63882000  0.12004000  1.0 -0.161620219
C  C51  1  0.09911000  0.73793000  0.62004000  1.0 -0.1532780709
C  C52  1  0.36118000  0.09911000  0.12004000  1.0 -0.1532780709
C  C53  1  0.26207000  0.36118000  0.62004000  1.0 -0.161620219
C  C54  1  0.90089000  0.26207000  0.12004000  1.0 -0.161620219
C  C55  1  0.90089000  0.63882000  0.37996000  1.0 -0.1532780709
C  C56  1  0.63882000  0.73793000  0.87996000  1.0 -0.161620219
C  C57  1  0.73793000  0.09911000  0.37996000  1.0 -0.1532780709
C  C58  1  0.09911000  0.36118000  0.87996000  1.0 -0.1532780709
C  C59  1  0.36118000  0.26207000  0.37996000  1.0 -0.1532780709
C  C60  1  0.26207000  0.90089000  0.87996000  1.0 -0.161620219
C  C61  1  0.36118000  0.09911000  0.37996000  1.0 -0.1532780709
C  C62  1  0.26207000  0.36118000  0.87996000  1.0 -0.161620219
C  C63  1  0.90089000  0.26207000  0.37996000  1.0 -0.161620219
C  C64  1  0.63882000  0.90089000  0.87996000  1.0 -0.161620219
C  C65  1  0.73793000  0.63882000  0.37996000  1.0 -0.161620219
C  C66  1  0.09911000  0.73793000  0.87996000  1.0 -0.1532780709
C  C67  1  0.09911000  0.36118000  0.62004000  1.0 -0.1532780709
C  C68  1  0.36118000  0.26207000  0.12004000  1.0 -0.1532780709
C  C69  1  0.26207000  0.90089000  0.62004000  1.0 -0.161620219
C  C70  1  0.90089000  0.63882000  0.12004000  1.0 -0.1532780709
C  C71  1  0.63882000  0.73793000  0.62004000  1.0 -0.161620219
C  C72  1  0.73793000  0.09911000  0.12004000  1.0 -0.1532780709
C  C73  1  0.73753000  0.86876000  0.69712000  1.0 0.0998142528
C  C74  1  0.86877000  0.73753000  0.19712000  1.0 0.0998142528
C  C75  1  0.13123000  0.86876000  0.69712000  1.0 0.0998142528
C  C76  1  0.26247000  0.13123000  0.19712000  1.0 0.0998142528
C  C77  1  0.13123000  0.26247000  0.69712000  1.0 0.0998142528
C  C78  1  0.86877000  0.13123000  0.19712000  1.0 0.0998142528
C  C79  1  0.86877000  0.73753000  0.30288000  1.0 0.0998142528
C  C80  1  0.73753000  0.86876000  0.80288000  1.0 0.0998142528
C  C81  1  0.86877000  0.13123000  0.30288000  1.0 0.0998142528
C  C82  1  0.13123000  0.26247000  0.80288000  1.0 0.0998142528
C  C83  1  0.26247000  0.13123000  0.30288000  1.0 0.0998142528
C  C84  1  0.13123000  0.86876000  0.80288000  1.0 0.0998142528
C  C85  1  0.59966000  0.79983000  0.59407000  1.0 0.1818955285
C  C86  1  0.79983000  0.59966000  0.09407000  1.0 0.1818955285
C  C87  1  0.20017000  0.79983000  0.59407000  1.0 0.1818955285
C  C88  1  0.40034000  0.20017000  0.09407000  1.0 0.1818955285
C  C89  1  0.20017000  0.40034000  0.59407000  1.0 0.1818955285
C  C90  1  0.79983000  0.20017000  0.09407000  1.0 0.1818955285
C  C91  1  0.79983000  0.59966000  0.40593000  1.0 0.1818955285
C  C92  1  0.59966000  0.79983000  0.90593000  1.0 0.1818955285
C  C93  1  0.79983000  0.20017000  0.40593000  1.0 0.1818955285
C  C94  1  0.20017000  0.40034000  0.90593000  1.0 0.1818955285
C  C95  1  0.40034000  0.20017000  0.40593000  1.0 0.1818955285
C  C96  1  0.20017000  0.79983000  0.90593000  1.0 0.1818955285
C  C97  1  0.81434000  0.90717000  0.75000000  1.0 -0.0354296647
C  C98  1  0.90717000  0.81434000  0.25000000  1.0 -0.0354296647
C  C99  1  0.09283000  0.90717000  0.75000000  1.0 -0.0294880371
C  C100  1  0.18566000  0.09283000  0.25000000  1.0 -0.0229252975
C  C101  1  0.09283000  0.18566000  0.75000000  1.0 -0.0229252975
C  C102  1  0.90717000  0.09283000  0.25000000  1.0 -0.0294880371
Cl  Cl1  1  0.21160000  0.42320000  0.25000000  1.0 0.2902833104
Cl  Cl2  1  0.42320000  0.21160000  0.75000000  1.0 0.2902833104
Cl  Cl3  1  0.21160000  0.78840000  0.25000000  1.0 0.2902833104
Cl  Cl4  1  0.78840000  0.57680000  0.75000000  1.0 0.2902833104
Cl  Cl5  1  0.57680000  0.78840000  0.25000000  1.0 0.2902833104
Cl  Cl6  1  0.78840000  0.21160000  0.75000000  1.0 0.2902833104
O  O1  1  0.62960000  0.06710000  0.62050000  1.0 -0.5966505527
O  O2  1  0.56250000  0.62960000  0.12050000  1.0 -0.5930836022
O  O3  1  0.93290000  0.56250000  0.62050000  1.0 -0.5966505527
O  O4  1  0.37040000  0.93290000  0.12050000  1.0 -0.5930836022
O  O5  1  0.43750000  0.37040000  0.62050000  1.0 -0.5930836022
O  O6  1  0.06710000  0.43750000  0.12050000  1.0 -0.5966505527
O  O7  1  0.06710000  0.62960000  0.37950000  1.0 -0.5966505527
O  O8  1  0.62960000  0.56250000  0.87950000  1.0 -0.5966505527
O  O9  1  0.56250000  0.93290000  0.37950000  1.0 -0.5930836022
O  O10  1  0.93290000  0.37040000  0.87950000  1.0 -0.5966505527
O  O11  1  0.37040000  0.43750000  0.37950000  1.0 -0.5966505527
O  O12  1  0.43750000  0.06710000  0.87950000  1.0 -0.5966505527
O  O13  1  0.37040000  0.93290000  0.37950000  1.0 -0.5930836022
O  O14  1  0.43750000  0.37040000  0.87950000  1.0 -0.5930836022
O  O15  1  0.06710000  0.43750000  0.37950000  1.0 -0.5966505527
O  O16  1  0.62960000  0.06710000  0.87950000  1.0 -0.5966505527
O  O17  1  0.56250000  0.62960000  0.37950000  1.0 -0.5930836022
O  O18  1  0.93290000  0.56250000  0.87950000  1.0 -0.5966505527
O  O19  1  0.93290000  0.37040000  0.62050000  1.0 -0.5966505527
O  O20  1  0.37040000  0.43750000  0.12050000  1.0 -0.5966505527
O  O21  1  0.43750000  0.06710000  0.62050000  1.0 -0.5966505527
O  O22  1  0.06710000  0.62960000  0.12050000  1.0 -0.5966505527
O  O23  1  0.62960000  0.56250000  0.62050000  1.0 -0.5966505527
O  O24  1  0.56250000  0.93290000  0.12050000  1.0 -0.5930836022
O  O25  1  0.56990000  0.94480000  0.54800000  1.0 -0.5430075442
O  O26  1  0.62510000  0.56990000  0.04800000  1.0 -0.5430075442
O  O27  1  0.05520000  0.62510000  0.54800000  1.0 -0.5430075442
O  O28  1  0.43010000  0.05520000  0.04800000  1.0 -0.5430075442
O  O29  1  0.37490000  0.43010000  0.54800000  1.0 -0.5430075442
O  O30  1  0.94480000  0.37490000  0.04800000  1.0 -0.5430075442
O  O31  1  0.94480000  0.56990000  0.45200000  1.0 -0.5430075442
O  O32  1  0.56990000  0.62510000  0.95200000  1.0 -0.5458454161
O  O33  1  0.62510000  0.05520000  0.45200000  1.0 -0.5430075442
O  O34  1  0.05520000  0.43010000  0.95200000  1.0 -0.5430075442
O  O35  1  0.43010000  0.37490000  0.45200000  1.0 -0.5430075442
O  O36  1  0.37490000  0.94480000  0.95200000  1.0 -0.5430075442
O  O37  1  0.43010000  0.05520000  0.45200000  1.0 -0.5430075442
O  O38  1  0.37490000  0.43010000  0.95200000  1.0 -0.5430075442
O  O39  1  0.94480000  0.37490000  0.45200000  1.0 -0.5430075442
O  O40  1  0.56990000  0.94480000  0.95200000  1.0 -0.5430075442
O  O41  1  0.62510000  0.56990000  0.45200000  1.0 -0.5430075442
O  O42  1  0.05520000  0.62510000  0.95200000  1.0 -0.5430075442
O  O43  1  0.05520000  0.43010000  0.54800000  1.0 -0.5430075442
O  O44  1  0.43010000  0.37490000  0.04800000  1.0 -0.5430075442
O  O45  1  0.37490000  0.94480000  0.54800000  1.0 -0.5430075442
O  O46  1  0.94480000  0.56990000  0.04800000  1.0 -0.5430075442
O  O47  1  0.56990000  0.62510000  0.54800000  1.0 -0.5458454161
O  O48  1  0.62510000  0.05520000  0.04800000  1.0 -0.5430075442
O  O49  1  0.57270000  0.14540000  0.52490000  1.0 -0.749156335
O  O50  1  0.42730000  0.57270000  0.02490000  1.0 -0.7419582788
O  O51  1  0.85460000  0.42730000  0.52490000  1.0 -0.749156335
O  O52  1  0.42730000  0.85460000  0.02490000  1.0 -0.7419582788
O  O53  1  0.57270000  0.42730000  0.52490000  1.0 -0.7419582788
O  O54  1  0.14540000  0.57270000  0.02490000  1.0 -0.7419582788
O  O55  1  0.14540000  0.57270000  0.47510000  1.0 -0.7419582788
O  O56  1  0.57270000  0.42730000  0.97510000  1.0 -0.7419582788
O  O57  1  0.42730000  0.85460000  0.47510000  1.0 -0.7419582788
O  O58  1  0.85460000  0.42730000  0.97510000  1.0 -0.749156335
O  O59  1  0.42730000  0.57270000  0.47510000  1.0 -0.749156335
O  O60  1  0.57270000  0.14540000  0.97510000  1.0 -0.749156335
O  O61  1  0.58845000  0.17690000  0.68000000  1.0 -0.4218427509
O  O62  1  0.41155000  0.58845000  0.18000000  1.0 -0.4218427509
O  O63  1  0.82310000  0.41155000  0.68000000  1.0 -0.4218427509
O  O64  1  0.41155000  0.82310000  0.18000000  1.0 -0.4218427509
O  O65  1  0.58845000  0.41155000  0.68000000  1.0 -0.4218427509
O  O66  1  0.17690000  0.58845000  0.18000000  1.0 -0.4218427509
O  O67  1  0.17690000  0.58845000  0.32000000  1.0 -0.4218427509
O  O68  1  0.58845000  0.41155000  0.82000000  1.0 -0.4218427509
O  O69  1  0.41155000  0.82310000  0.32000000  1.0 -0.4218427509
O  O70  1  0.82310000  0.41155000  0.82000000  1.0 -0.4218427509
O  O71  1  0.41155000  0.58845000  0.32000000  1.0 -0.4218427509
O  O72  1  0.58845000  0.17690000  0.82000000  1.0 -0.4218427509
O  O73  1  0.73570000  0.26430000  0.59060000  1.0 -0.716687744
O  O74  1  0.47140000  0.73570000  0.09060000  1.0 -0.716687744
O  O75  1  0.73570000  0.47140000  0.59060000  1.0 -0.716687744
O  O76  1  0.26430000  0.73570000  0.09060000  1.0 -0.7141188055
O  O77  1  0.52860000  0.26430000  0.59060000  1.0 -0.716687744
O  O78  1  0.26430000  0.52860000  0.09060000  1.0 -0.716687744
O  O79  1  0.26430000  0.73570000  0.40940000  1.0 -0.716687744
O  O80  1  0.73570000  0.47140000  0.90940000  1.0 -0.716687744
O  O81  1  0.47140000  0.73570000  0.40940000  1.0 -0.716687744
O  O82  1  0.73570000  0.26430000  0.90940000  1.0 -0.716687744
O  O83  1  0.26430000  0.52860000  0.40940000  1.0 -0.716687744
O  O84  1  0.52860000  0.26430000  0.90940000  1.0 -0.716687744
