# DDEC6 charges by PACMAN v1.1 (https://github.com/mtap-research/PACMAN-charge/)
data_WISNEV_ASR_pacman
_symmetry_space_group_name_H-M   'P 1'
_cell_length_a   16.40690000
_cell_length_b   20.72470000
_cell_length_c   28.48670000
_cell_angle_alpha   90.00000000
_cell_angle_beta   90.00000000
_cell_angle_gamma   90.00000000
_symmetry_Int_Tables_number   1
_chemical_formula_structural   Zr3H64C87O13
_chemical_formula_sum   'Zr6 H128 C174 O26'
_cell_volume   9686.27791879
_cell_formula_units_Z   2
loop_
 _symmetry_equiv_pos_site_id
 _symmetry_equiv_pos_as_xyz
  1  'x, y, z'
loop_
 _atom_site_type_symbol
 _atom_site_label
 _atom_site_symmetry_multiplicity
 _atom_site_fract_x
 _atom_site_fract_y
 _atom_site_fract_z
 _atom_site_occupancy
 _atom_site_charge
Zr  Zr1  1  0.50000000  0.50000000  0.91448000  1.0 2.342854082
Zr  Zr2  1  0.50000000  0.50000000  0.08552000  1.0 2.342854082
Zr  Zr3  1  0.60781000  0.58552000  0.00000000  1.0 2.4732908004
Zr  Zr4  1  0.39219000  0.41448000  0.00000000  1.0 2.4732908004
Zr  Zr5  1  0.39219000  0.58552000  0.00000000  1.0 2.4732908004
Zr  Zr6  1  0.60781000  0.41448000  0.00000000  1.0 2.4732908004
H  H1  1  0.14029000  0.12515000  0.50000000  1.0 0.1104170971
H  H2  1  0.85971000  0.87485000  0.50000000  1.0 0.1104170971
H  H3  1  0.85971000  0.12515000  0.50000000  1.0 0.1104170971
H  H4  1  0.14029000  0.87485000  0.50000000  1.0 0.1104170971
H  H5  1  0.14252000  0.18467000  0.57962000  1.0 0.1223335806
H  H6  1  0.85748000  0.81533000  0.57962000  1.0 0.1223335806
H  H7  1  0.85748000  0.18467000  0.42038000  1.0 0.1223335806
H  H8  1  0.14252000  0.81533000  0.42038000  1.0 0.1223335806
H  H9  1  0.85748000  0.81533000  0.42038000  1.0 0.1223335806
H  H10  1  0.14252000  0.18467000  0.42038000  1.0 0.1223335806
H  H11  1  0.14252000  0.81533000  0.57962000  1.0 0.1223335806
H  H12  1  0.85748000  0.18467000  0.57962000  1.0 0.1223335806
H  H13  1  0.27675000  0.38666000  0.73800000  1.0 0.1007797251
H  H14  1  0.72325000  0.61334000  0.73800000  1.0 0.1007797251
H  H15  1  0.72325000  0.38666000  0.26200000  1.0 0.1007797251
H  H16  1  0.27675000  0.61334000  0.26200000  1.0 0.1007797251
H  H17  1  0.72325000  0.61334000  0.26200000  1.0 0.1007797251
H  H18  1  0.27675000  0.38666000  0.26200000  1.0 0.1007797251
H  H19  1  0.27675000  0.61334000  0.73800000  1.0 0.1007797251
H  H20  1  0.72325000  0.38666000  0.73800000  1.0 0.1007797251
H  H21  1  0.35890000  0.42779000  0.79895000  1.0 0.1273977452
H  H22  1  0.64110000  0.57221000  0.79895000  1.0 0.1273977452
H  H23  1  0.64110000  0.42779000  0.20105000  1.0 0.1273977452
H  H24  1  0.35890000  0.57221000  0.20105000  1.0 0.1273977452
H  H25  1  0.64110000  0.57221000  0.20105000  1.0 0.1273977452
H  H26  1  0.35890000  0.42779000  0.20105000  1.0 0.1273977452
H  H27  1  0.35890000  0.57221000  0.79895000  1.0 0.1273977452
H  H28  1  0.64110000  0.42779000  0.79895000  1.0 0.1273977452
H  H29  1  0.19799000  0.24848000  0.82246000  1.0 0.1223335806
H  H30  1  0.80201000  0.75152000  0.82246000  1.0 0.1223335806
H  H31  1  0.80201000  0.24848000  0.17754000  1.0 0.1223335806
H  H32  1  0.19799000  0.75152000  0.17754000  1.0 0.1223335806
H  H33  1  0.80201000  0.75152000  0.17754000  1.0 0.1223335806
H  H34  1  0.19799000  0.24848000  0.17754000  1.0 0.1223335806
H  H35  1  0.19799000  0.75152000  0.82246000  1.0 0.1223335806
H  H36  1  0.80201000  0.24848000  0.82246000  1.0 0.1223335806
H  H37  1  0.27238000  0.29070000  0.88339000  1.0 0.1104170971
H  H38  1  0.72762000  0.70930000  0.88339000  1.0 0.1104170971
H  H39  1  0.72762000  0.29070000  0.11661000  1.0 0.1104170971
H  H40  1  0.27238000  0.70930000  0.11661000  1.0 0.1104170971
H  H41  1  0.72762000  0.70930000  0.11661000  1.0 0.1104170971
H  H42  1  0.27238000  0.29070000  0.11661000  1.0 0.1104170971
H  H43  1  0.27238000  0.70930000  0.88339000  1.0 0.1104170971
H  H44  1  0.72762000  0.29070000  0.88339000  1.0 0.1104170971
H  H45  1  0.16177000  0.29409000  0.62106000  1.0 0.1007797251
H  H46  1  0.83823000  0.70591000  0.62106000  1.0 0.1007797251
H  H47  1  0.83823000  0.29409000  0.37894000  1.0 0.1007797251
H  H48  1  0.16177000  0.70591000  0.37894000  1.0 0.1007797251
H  H49  1  0.83823000  0.70591000  0.37894000  1.0 0.1007797251
H  H50  1  0.16177000  0.29409000  0.37894000  1.0 0.1007797251
H  H51  1  0.16177000  0.70591000  0.62106000  1.0 0.1007797251
H  H52  1  0.83823000  0.29409000  0.62106000  1.0 0.1007797251
H  H53  1  0.03036000  0.18567000  0.71011000  1.0 0.0715037643
H  H54  1  0.96964000  0.81433000  0.71011000  1.0 0.0715037643
H  H55  1  0.96964000  0.18567000  0.28989000  1.0 0.0715037643
H  H56  1  0.03036000  0.81433000  0.28989000  1.0 0.0715037643
H  H57  1  0.96964000  0.81433000  0.28989000  1.0 0.0715037643
H  H58  1  0.03036000  0.18567000  0.28989000  1.0 0.0715037643
H  H59  1  0.03036000  0.81433000  0.71011000  1.0 0.0715037643
H  H60  1  0.96964000  0.18567000  0.71011000  1.0 0.0715037643
H  H61  1  0.24215000  0.33126000  0.68134000  1.0 0.091619802
H  H62  1  0.75785000  0.66874000  0.68134000  1.0 0.091619802
H  H63  1  0.75785000  0.33126000  0.31866000  1.0 0.091619802
H  H64  1  0.24215000  0.66874000  0.31866000  1.0 0.091619802
H  H65  1  0.75785000  0.66874000  0.31866000  1.0 0.091619802
H  H66  1  0.24215000  0.33126000  0.31866000  1.0 0.091619802
H  H67  1  0.24215000  0.66874000  0.68134000  1.0 0.091619802
H  H68  1  0.75785000  0.33126000  0.68134000  1.0 0.091619802
H  H69  1  0.15864000  0.00000000  0.43238000  1.0 0.1273977452
H  H70  1  0.84136000  0.00000000  0.43238000  1.0 0.1273977452
H  H71  1  0.84136000  0.00000000  0.56762000  1.0 0.1273977452
H  H72  1  0.15864000  0.00000000  0.56762000  1.0 0.1273977452
H  H73  1  0.23651000  0.03861000  0.45124000  1.0 0.1223335806
H  H74  1  0.76349000  0.96139000  0.45124000  1.0 0.1223335806
H  H75  1  0.76349000  0.03861000  0.54876000  1.0 0.1223335806
H  H76  1  0.23651000  0.96139000  0.54876000  1.0 0.1223335806
H  H77  1  0.76349000  0.96139000  0.54876000  1.0 0.1223335806
H  H78  1  0.23651000  0.03861000  0.54876000  1.0 0.1223335806
H  H79  1  0.23651000  0.96139000  0.45124000  1.0 0.1223335806
H  H80  1  0.76349000  0.03861000  0.45124000  1.0 0.1223335806
H  H81  1  0.15298000  0.15387000  0.67546000  1.0 0.1007797251
H  H82  1  0.84702000  0.84613000  0.67546000  1.0 0.1007797251
H  H83  1  0.84702000  0.15387000  0.32454000  1.0 0.1007797251
H  H84  1  0.15298000  0.84613000  0.32454000  1.0 0.1007797251
H  H85  1  0.84702000  0.84613000  0.32454000  1.0 0.1007797251
H  H86  1  0.15298000  0.15387000  0.32454000  1.0 0.1007797251
H  H87  1  0.15298000  0.84613000  0.67546000  1.0 0.1007797251
H  H88  1  0.84702000  0.15387000  0.67546000  1.0 0.1007797251
H  H89  1  0.23496000  0.19505000  0.73454000  1.0 0.091619802
H  H90  1  0.76504000  0.80495000  0.73454000  1.0 0.091619802
H  H91  1  0.76504000  0.19505000  0.26546000  1.0 0.091619802
H  H92  1  0.23496000  0.80495000  0.26546000  1.0 0.091619802
H  H93  1  0.76504000  0.80495000  0.26546000  1.0 0.091619802
H  H94  1  0.23496000  0.19505000  0.26546000  1.0 0.091619802
H  H95  1  0.23496000  0.80495000  0.73454000  1.0 0.091619802
H  H96  1  0.76504000  0.19505000  0.73454000  1.0 0.091619802
H  H97  1  0.13460000  0.36953000  0.71228000  1.0 0.1007797251
H  H98  1  0.86540000  0.63047000  0.71228000  1.0 0.1007797251
H  H99  1  0.86540000  0.36953000  0.28772000  1.0 0.1007797251
H  H100  1  0.13460000  0.63047000  0.28772000  1.0 0.1007797251
H  H101  1  0.86540000  0.63047000  0.28772000  1.0 0.1007797251
H  H102  1  0.13460000  0.36953000  0.28772000  1.0 0.1007797251
H  H103  1  0.13460000  0.63047000  0.71228000  1.0 0.1007797251
H  H104  1  0.86540000  0.36953000  0.71228000  1.0 0.1007797251
H  H105  1  0.05766000  0.32788000  0.65295000  1.0 0.091619802
H  H106  1  0.94234000  0.67212000  0.65295000  1.0 0.091619802
H  H107  1  0.94234000  0.32788000  0.34705000  1.0 0.091619802
H  H108  1  0.05766000  0.67212000  0.34705000  1.0 0.091619802
H  H109  1  0.94234000  0.67212000  0.34705000  1.0 0.091619802
H  H110  1  0.05766000  0.32788000  0.34705000  1.0 0.091619802
H  H111  1  0.05766000  0.67212000  0.65295000  1.0 0.091619802
H  H112  1  0.94234000  0.32788000  0.65295000  1.0 0.091619802
H  H113  1  0.14587000  0.20523000  0.75722000  1.0 0.0808596819
H  H114  1  0.85413000  0.79477000  0.75722000  1.0 0.0808596819
H  H115  1  0.85413000  0.20523000  0.24278000  1.0 0.0808596819
H  H116  1  0.14587000  0.79477000  0.24278000  1.0 0.0808596819
H  H117  1  0.85413000  0.79477000  0.24278000  1.0 0.0808596819
H  H118  1  0.14587000  0.20523000  0.24278000  1.0 0.0808596819
H  H119  1  0.14587000  0.79477000  0.75722000  1.0 0.0808596819
H  H120  1  0.85413000  0.20523000  0.75722000  1.0 0.0808596819
H  H121  1  0.08284000  0.26279000  0.76245000  1.0 0.091619802
H  H122  1  0.91716000  0.73721000  0.76245000  1.0 0.091619802
H  H123  1  0.91716000  0.26279000  0.23755000  1.0 0.091619802
H  H124  1  0.08284000  0.73721000  0.23755000  1.0 0.091619802
H  H125  1  0.91716000  0.73721000  0.23755000  1.0 0.091619802
H  H126  1  0.08284000  0.26279000  0.23755000  1.0 0.091619802
H  H127  1  0.08284000  0.73721000  0.76245000  1.0 0.091619802
H  H128  1  0.91716000  0.26279000  0.76245000  1.0 0.091619802
C  C1  1  0.08580000  0.00000000  0.50000000  1.0 0.0516376116
C  C2  1  0.91420000  0.00000000  0.50000000  1.0 0.0516376116
C  C3  1  0.04350000  0.05730000  0.50000000  1.0 -0.0805724394
C  C4  1  0.95650000  0.94270000  0.50000000  1.0 -0.0805724394
C  C5  1  0.95650000  0.05730000  0.50000000  1.0 -0.0805724394
C  C6  1  0.04350000  0.94270000  0.50000000  1.0 -0.0805724394
C  C7  1  0.07930000  0.12480000  0.50000000  1.0 -0.1102757833
C  C8  1  0.92070000  0.87520000  0.50000000  1.0 -0.1102757833
C  C9  1  0.92070000  0.12480000  0.50000000  1.0 -0.1102757833
C  C10  1  0.07930000  0.87520000  0.50000000  1.0 -0.1102757833
C  C11  1  0.04280000  0.15770000  0.54246000  1.0 0.0316022945
C  C12  1  0.95720000  0.84230000  0.54246000  1.0 0.0316022945
C  C13  1  0.95720000  0.15770000  0.45754000  1.0 0.0316022945
C  C14  1  0.04280000  0.84230000  0.45754000  1.0 0.0316022945
C  C15  1  0.95720000  0.84230000  0.45754000  1.0 0.0316022945
C  C16  1  0.04280000  0.15770000  0.45754000  1.0 0.0316022945
C  C17  1  0.04280000  0.84230000  0.54246000  1.0 0.0316022945
C  C18  1  0.95720000  0.15770000  0.54246000  1.0 0.0316022945
C  C19  1  0.08460000  0.18380000  0.58003000  1.0 -0.2354427359
C  C20  1  0.91540000  0.81620000  0.58003000  1.0 -0.2340318269
C  C21  1  0.91540000  0.18380000  0.41997000  1.0 -0.2354427359
C  C22  1  0.08460000  0.81620000  0.41997000  1.0 -0.2340318269
C  C23  1  0.91540000  0.81620000  0.41997000  1.0 -0.2340318269
C  C24  1  0.08460000  0.18380000  0.41997000  1.0 -0.2354427359
C  C25  1  0.08460000  0.81620000  0.58003000  1.0 -0.2340318269
C  C26  1  0.91540000  0.18380000  0.58003000  1.0 -0.2354427359
C  C27  1  0.04240000  0.20910000  0.61889000  1.0 -0.0014678594
C  C28  1  0.95760000  0.79090000  0.61889000  1.0 -0.0014678594
C  C29  1  0.95760000  0.20910000  0.38111000  1.0 2.65658e-05
C  C30  1  0.04240000  0.79090000  0.38111000  1.0 -0.0014678594
C  C31  1  0.95760000  0.79090000  0.38111000  1.0 -0.0014678594
C  C32  1  0.04240000  0.20910000  0.38111000  1.0 -0.0014678594
C  C33  1  0.04240000  0.79090000  0.61889000  1.0 -0.0014678594
C  C34  1  0.95760000  0.20910000  0.61889000  1.0 2.65658e-05
C  C35  1  0.36560000  0.39780000  0.88694000  1.0 0.6287417703
C  C36  1  0.63440000  0.60220000  0.88694000  1.0 0.6287417703
C  C37  1  0.63440000  0.39780000  0.11306000  1.0 0.6287417703
C  C38  1  0.36560000  0.60220000  0.11306000  1.0 0.6287417703
C  C39  1  0.63440000  0.60220000  0.11306000  1.0 0.6287417703
C  C40  1  0.36560000  0.39780000  0.11306000  1.0 0.6287417703
C  C41  1  0.36560000  0.60220000  0.88694000  1.0 0.6287417703
C  C42  1  0.63440000  0.39780000  0.88694000  1.0 0.6287417703
C  C43  1  0.09230000  0.23500000  0.65874000  1.0 0.0373620534
C  C44  1  0.90770000  0.76500000  0.65874000  1.0 0.0373620534
C  C45  1  0.90770000  0.23500000  0.34126000  1.0 0.0373620534
C  C46  1  0.09230000  0.76500000  0.34126000  1.0 0.0373620534
C  C47  1  0.90770000  0.76500000  0.34126000  1.0 0.0373620534
C  C48  1  0.09230000  0.23500000  0.34126000  1.0 0.0373620534
C  C49  1  0.09230000  0.76500000  0.65874000  1.0 0.0373620534
C  C50  1  0.90770000  0.23500000  0.65874000  1.0 0.0373620534
C  C51  1  0.18350000  0.28600000  0.73300000  1.0 0.0316022945
C  C52  1  0.81650000  0.71400000  0.73300000  1.0 0.0316022945
C  C53  1  0.81650000  0.28600000  0.26700000  1.0 0.0316022945
C  C54  1  0.18350000  0.71400000  0.26700000  1.0 0.0316022945
C  C55  1  0.81650000  0.71400000  0.26700000  1.0 0.0316022945
C  C56  1  0.18350000  0.28600000  0.26700000  1.0 0.0316022945
C  C57  1  0.18350000  0.71400000  0.73300000  1.0 0.0316022945
C  C58  1  0.81650000  0.28600000  0.73300000  1.0 0.0316022945
C  C59  1  0.31850000  0.36590000  0.84828000  1.0 -0.0500555091
C  C60  1  0.68150000  0.63410000  0.84828000  1.0 -0.0500555091
C  C61  1  0.68150000  0.36590000  0.15172000  1.0 -0.0500555091
C  C62  1  0.31850000  0.63410000  0.15172000  1.0 -0.0500555091
C  C63  1  0.68150000  0.63410000  0.15172000  1.0 -0.0500555091
C  C64  1  0.31850000  0.36590000  0.15172000  1.0 -0.0500555091
C  C65  1  0.31850000  0.63410000  0.84828000  1.0 -0.0500555091
C  C66  1  0.68150000  0.36590000  0.84828000  1.0 -0.0500555091
C  C67  1  0.23050000  0.31250000  0.77339000  1.0 0.0626573994
C  C68  1  0.76950000  0.68750000  0.77339000  1.0 0.0626573994
C  C69  1  0.76950000  0.31250000  0.22661000  1.0 0.0626573994
C  C70  1  0.23050000  0.68750000  0.22661000  1.0 0.0626573994
C  C71  1  0.76950000  0.68750000  0.22661000  1.0 0.0626573994
C  C72  1  0.23050000  0.31250000  0.22661000  1.0 0.0626573994
C  C73  1  0.23050000  0.68750000  0.77339000  1.0 0.0626573994
C  C74  1  0.76950000  0.31250000  0.77339000  1.0 0.0626573994
C  C75  1  0.27630000  0.36590000  0.76770000  1.0 -0.1791555218
C  C76  1  0.72370000  0.63410000  0.76770000  1.0 -0.1791555218
C  C77  1  0.72370000  0.36590000  0.23230000  1.0 -0.1791555218
C  C78  1  0.27630000  0.63410000  0.23230000  1.0 -0.1791555218
C  C79  1  0.72370000  0.63410000  0.23230000  1.0 -0.1791555218
C  C80  1  0.27630000  0.36590000  0.23230000  1.0 -0.1791555218
C  C81  1  0.27630000  0.63410000  0.76770000  1.0 -0.1791555218
C  C82  1  0.72370000  0.36590000  0.76770000  1.0 -0.1791555218
C  C83  1  0.32380000  0.39220000  0.80460000  1.0 -0.0990694898
C  C84  1  0.67620000  0.60780000  0.80460000  1.0 -0.0990694898
C  C85  1  0.67620000  0.39220000  0.19540000  1.0 -0.0990694898
C  C86  1  0.32380000  0.60780000  0.19540000  1.0 -0.0990694898
C  C87  1  0.67620000  0.60780000  0.19540000  1.0 -0.0990694898
C  C88  1  0.32380000  0.39220000  0.19540000  1.0 -0.0990694898
C  C89  1  0.32380000  0.60780000  0.80460000  1.0 -0.0990694898
C  C90  1  0.67620000  0.39220000  0.80460000  1.0 -0.0990694898
C  C91  1  0.22990000  0.28600000  0.81710000  1.0 -0.1921074508
C  C92  1  0.77010000  0.71400000  0.81710000  1.0 -0.1921074508
C  C93  1  0.77010000  0.28600000  0.18290000  1.0 -0.1921074508
C  C94  1  0.22990000  0.71400000  0.18290000  1.0 -0.1921074508
C  C95  1  0.77010000  0.71400000  0.18290000  1.0 -0.1921074508
C  C96  1  0.22990000  0.28600000  0.18290000  1.0 -0.1921074508
C  C97  1  0.22990000  0.71400000  0.81710000  1.0 -0.1921074508
C  C98  1  0.77010000  0.28600000  0.81710000  1.0 -0.1921074508
C  C99  1  0.27360000  0.31150000  0.85370000  1.0 -0.0805724394
C  C100  1  0.72640000  0.68850000  0.85370000  1.0 -0.0805724394
C  C101  1  0.72640000  0.31150000  0.14630000  1.0 -0.0805724394
C  C102  1  0.27360000  0.68850000  0.14630000  1.0 -0.0805724394
C  C103  1  0.72640000  0.68850000  0.14630000  1.0 -0.0805724394
C  C104  1  0.27360000  0.31150000  0.14630000  1.0 -0.0805724394
C  C105  1  0.27360000  0.68850000  0.85370000  1.0 -0.0805724394
C  C106  1  0.72640000  0.31150000  0.85370000  1.0 -0.0805724394
C  C107  1  0.15180000  0.27890000  0.65200000  1.0 -0.0655433339
C  C108  1  0.84820000  0.72110000  0.65200000  1.0 -0.0655433339
C  C109  1  0.84820000  0.27890000  0.34800000  1.0 -0.0655433339
C  C110  1  0.15180000  0.72110000  0.34800000  1.0 -0.0655433339
C  C111  1  0.84820000  0.72110000  0.34800000  1.0 -0.0655433339
C  C112  1  0.15180000  0.27890000  0.34800000  1.0 -0.0655433339
C  C113  1  0.15180000  0.72110000  0.65200000  1.0 -0.0655433339
C  C114  1  0.84820000  0.27890000  0.65200000  1.0 -0.0643014765
C  C115  1  0.07320000  0.21530000  0.70390000  1.0 -0.1601505603
C  C116  1  0.92680000  0.78470000  0.70390000  1.0 -0.1601505603
C  C117  1  0.92680000  0.21530000  0.29610000  1.0 -0.1601505603
C  C118  1  0.07320000  0.78470000  0.29610000  1.0 -0.1601505603
C  C119  1  0.92680000  0.78470000  0.29610000  1.0 -0.1601505603
C  C120  1  0.07320000  0.21530000  0.29610000  1.0 -0.1601505603
C  C121  1  0.07320000  0.78470000  0.70390000  1.0 -0.1601505603
C  C122  1  0.92680000  0.21530000  0.70390000  1.0 -0.1601505603
C  C123  1  0.12130000  0.24210000  0.74030000  1.0 -0.1441233612
C  C124  1  0.87870000  0.75790000  0.74030000  1.0 -0.1466922618
C  C125  1  0.87870000  0.24210000  0.25970000  1.0 -0.1441233612
C  C126  1  0.12130000  0.75790000  0.25970000  1.0 -0.1466922618
C  C127  1  0.87870000  0.75790000  0.25970000  1.0 -0.1466922618
C  C128  1  0.12130000  0.24210000  0.25970000  1.0 -0.1441233612
C  C129  1  0.12130000  0.75790000  0.74030000  1.0 -0.1466922618
C  C130  1  0.87870000  0.24210000  0.74030000  1.0 -0.1441233612
C  C131  1  0.19850000  0.30260000  0.68810000  1.0 -0.0655433339
C  C132  1  0.80150000  0.69740000  0.68810000  1.0 -0.0643014765
C  C133  1  0.80150000  0.30260000  0.31190000  1.0 -0.0655433339
C  C134  1  0.19850000  0.69740000  0.31190000  1.0 -0.0655433339
C  C135  1  0.80150000  0.69740000  0.31190000  1.0 -0.0655433339
C  C136  1  0.19850000  0.30260000  0.31190000  1.0 -0.0655433339
C  C137  1  0.19850000  0.69740000  0.68810000  1.0 -0.0655433339
C  C138  1  0.80150000  0.30260000  0.68810000  1.0 -0.0643014765
C  C139  1  0.20280000  0.00000000  0.45550000  1.0 -0.2983263142
C  C140  1  0.79720000  0.00000000  0.45550000  1.0 -0.2983263142
C  C141  1  0.79720000  0.00000000  0.54450000  1.0 -0.2983263142
C  C142  1  0.20280000  0.00000000  0.54450000  1.0 -0.2983263142
C  C143  1  0.14770000  0.19810000  0.68360000  1.0 -0.0897162703
C  C144  1  0.85230000  0.80190000  0.68360000  1.0 -0.0897162703
C  C145  1  0.85230000  0.19810000  0.31640000  1.0 -0.0897162703
C  C146  1  0.14770000  0.80190000  0.31640000  1.0 -0.0897162703
C  C147  1  0.85230000  0.80190000  0.31640000  1.0 -0.0897162703
C  C148  1  0.14770000  0.19810000  0.31640000  1.0 -0.0897162703
C  C149  1  0.14770000  0.80190000  0.68360000  1.0 -0.0897162703
C  C150  1  0.85230000  0.19810000  0.68360000  1.0 -0.0897162703
C  C151  1  0.19550000  0.22150000  0.71950000  1.0 -0.1215081631
C  C152  1  0.80450000  0.77850000  0.71950000  1.0 -0.1215081631
C  C153  1  0.80450000  0.22150000  0.28050000  1.0 -0.1215081631
C  C154  1  0.19550000  0.77850000  0.28050000  1.0 -0.1215081631
C  C155  1  0.80450000  0.77850000  0.28050000  1.0 -0.1215081631
C  C156  1  0.19550000  0.22150000  0.28050000  1.0 -0.1215081631
C  C157  1  0.19550000  0.77850000  0.71950000  1.0 -0.1215081631
C  C158  1  0.80450000  0.22150000  0.71950000  1.0 -0.1215081631
C  C159  1  0.13640000  0.32450000  0.70620000  1.0 -0.0897162703
C  C160  1  0.86360000  0.67550000  0.70620000  1.0 -0.0897162703
C  C161  1  0.86360000  0.32450000  0.29380000  1.0 -0.0897162703
C  C162  1  0.13640000  0.67550000  0.29380000  1.0 -0.0897162703
C  C163  1  0.86360000  0.67550000  0.29380000  1.0 -0.0897162703
C  C164  1  0.13640000  0.32450000  0.29380000  1.0 -0.0897162703
C  C165  1  0.13640000  0.67550000  0.70620000  1.0 -0.0897162703
C  C166  1  0.86360000  0.32450000  0.70620000  1.0 -0.0897162703
C  C167  1  0.09140000  0.29960000  0.67060000  1.0 -0.0990694898
C  C168  1  0.90860000  0.70040000  0.67060000  1.0 -0.0990694898
C  C169  1  0.90860000  0.29960000  0.32940000  1.0 -0.0990694898
C  C170  1  0.09140000  0.70040000  0.32940000  1.0 -0.0990694898
C  C171  1  0.90860000  0.70040000  0.32940000  1.0 -0.0990694898
C  C172  1  0.09140000  0.29960000  0.32940000  1.0 -0.0990694898
C  C173  1  0.09140000  0.70040000  0.67060000  1.0 -0.0990694898
C  C174  1  0.90860000  0.29960000  0.67060000  1.0 -0.0990694898
O  O1  1  0.17040000  0.00000000  0.50000000  1.0 0.0316022945
O  O2  1  0.82960000  0.00000000  0.50000000  1.0 0.0316022945
O  O3  1  0.41920000  0.43710000  0.87495000  1.0 -0.5684986196
O  O4  1  0.58080000  0.56290000  0.87495000  1.0 -0.5684986196
O  O5  1  0.58080000  0.43710000  0.12505000  1.0 -0.5684986196
O  O6  1  0.41920000  0.56290000  0.12505000  1.0 -0.5684986196
O  O7  1  0.58080000  0.56290000  0.12505000  1.0 -0.5684986196
O  O8  1  0.41920000  0.43710000  0.12505000  1.0 -0.5684986196
O  O9  1  0.41920000  0.56290000  0.87495000  1.0 -0.5684986196
O  O10  1  0.58080000  0.43710000  0.87495000  1.0 -0.5684986196
O  O11  1  0.34860000  0.38090000  0.92807000  1.0 -0.6054418292
O  O12  1  0.65140000  0.61910000  0.92807000  1.0 -0.6054418292
O  O13  1  0.65140000  0.38090000  0.07193000  1.0 -0.6036431796
O  O14  1  0.34860000  0.61910000  0.07193000  1.0 -0.6054418292
O  O15  1  0.65140000  0.61910000  0.07193000  1.0 -0.6054418292
O  O16  1  0.34860000  0.38090000  0.07193000  1.0 -0.6036431796
O  O17  1  0.34860000  0.61910000  0.92807000  1.0 -0.6054418292
O  O18  1  0.65140000  0.38090000  0.92807000  1.0 -0.6054418292
O  O19  1  0.60860000  0.50000000  0.95792000  1.0 -1.188982547
O  O20  1  0.39140000  0.50000000  0.95792000  1.0 -1.188982547
O  O21  1  0.39140000  0.50000000  0.04208000  1.0 -1.188982547
O  O22  1  0.60860000  0.50000000  0.04208000  1.0 -1.188982547
O  O23  1  0.50000000  0.58670000  0.95800000  1.0 -1.188982547
O  O24  1  0.50000000  0.41330000  0.95800000  1.0 -1.188982547
O  O25  1  0.50000000  0.58670000  0.04200000  1.0 -1.1952000267
O  O26  1  0.50000000  0.41330000  0.04200000  1.0 -1.188982547
