# DDEC6 charges by PACMAN v1.1 (https://github.com/mtap-research/PACMAN-charge/)
data_WITJUG_FSR_pacman
_symmetry_space_group_name_H-M   'P 1'
_cell_length_a   18.03520000
_cell_length_b   25.86760000
_cell_length_c   18.35660000
_cell_angle_alpha   90.00000000
_cell_angle_beta   120.50700000
_cell_angle_gamma   90.00000000
_symmetry_Int_Tables_number   1
_chemical_formula_structural   Mn7H48C84(S3O22)2
_chemical_formula_sum   'Mn14 H96 C168 S12 O88'
_cell_volume   7378.33677075
_cell_formula_units_Z   2
loop_
 _symmetry_equiv_pos_site_id
 _symmetry_equiv_pos_as_xyz
  1  'x, y, z'
loop_
 _atom_site_type_symbol
 _atom_site_label
 _atom_site_symmetry_multiplicity
 _atom_site_fract_x
 _atom_site_fract_y
 _atom_site_fract_z
 _atom_site_occupancy
 _atom_site_charge
Mn  Mn1  1  0.00000000  0.00000000  0.00000000  1.0 1.2181587598
Mn  Mn2  1  0.00000000  0.50000000  0.50000000  1.0 1.2181587598
Mn  Mn3  1  0.12532000  0.08314000  0.19842000  1.0 1.1567645111
Mn  Mn4  1  0.87468000  0.58314000  0.30158000  1.0 1.1567645111
Mn  Mn5  1  0.87468000  0.91686000  0.80158000  1.0 1.1567645111
Mn  Mn6  1  0.12532000  0.41686000  0.69842000  1.0 1.1546868465
Mn  Mn7  1  0.78655000  0.00004000  0.89318000  1.0 1.1313121996
Mn  Mn8  1  0.21345000  0.50004000  0.60682000  1.0 1.1313121996
Mn  Mn9  1  0.21345000  0.99996000  0.10682000  1.0 1.1313121996
Mn  Mn10  1  0.78655000  0.49996000  0.39318000  1.0 1.1313121996
Mn  Mn11  1  0.87466000  0.08320000  0.07292000  1.0 1.1567645111
Mn  Mn12  1  0.12534000  0.58320000  0.42708000  1.0 1.1567645111
Mn  Mn13  1  0.12534000  0.91680000  0.92708000  1.0 1.1567645111
Mn  Mn14  1  0.87466000  0.41680000  0.57292000  1.0 1.1567645111
H  H1  1  0.00020000  0.03850000  0.29490000  1.0 0.1401015401
H  H2  1  0.99980000  0.53850000  0.20510000  1.0 0.1401015401
H  H3  1  0.99980000  0.96150000  0.70510000  1.0 0.1401015401
H  H4  1  0.00020000  0.46150000  0.79490000  1.0 0.1401015401
H  H5  1  0.99990000  0.00380000  0.41030000  1.0 0.1401015401
H  H6  1  0.00010000  0.50380000  0.08970000  1.0 0.1401015401
H  H7  1  0.00010000  0.99620000  0.58970000  1.0 0.1401015401
H  H8  1  0.99990000  0.49620000  0.91030000  1.0 0.1401015401
H  H9  1  0.00090000  0.86190000  0.31960000  1.0 0.1301470402
H  H10  1  0.99910000  0.36190000  0.18040000  1.0 0.1301470402
H  H11  1  0.99910000  0.13810000  0.68040000  1.0 0.1301470402
H  H12  1  0.00090000  0.63810000  0.81960000  1.0 0.1301470402
H  H13  1  0.00030000  0.89860000  0.20700000  1.0 0.1301470402
H  H14  1  0.99970000  0.39860000  0.29300000  1.0 0.1301470402
H  H15  1  0.99970000  0.10140000  0.79300000  1.0 0.1301470402
H  H16  1  0.00030000  0.60140000  0.70700000  1.0 0.1301470402
H  H17  1  0.87140000  0.82820000  0.38710000  1.0 0.1301470402
H  H18  1  0.12860000  0.32820000  0.11290000  1.0 0.1301470402
H  H19  1  0.12860000  0.17180000  0.61290000  1.0 0.1301470402
H  H20  1  0.87140000  0.67180000  0.88710000  1.0 0.1301470402
H  H21  1  0.87130000  0.74080000  0.36870000  1.0 0.1401015401
H  H22  1  0.12870000  0.24080000  0.13130000  1.0 0.1401015401
H  H23  1  0.12870000  0.25920000  0.63130000  1.0 0.1401015401
H  H24  1  0.87130000  0.75920000  0.86870000  1.0 0.1401015401
H  H25  1  0.12880000  0.74050000  0.49610000  1.0 0.1401015401
H  H26  1  0.87120000  0.24050000  0.00390000  1.0 0.1401015401
H  H27  1  0.87120000  0.25950000  0.50390000  1.0 0.1401015401
H  H28  1  0.12880000  0.75950000  0.99610000  1.0 0.1401015401
H  H29  1  0.12890000  0.82850000  0.51670000  1.0 0.1301470402
H  H30  1  0.87110000  0.32850000  0.98330000  1.0 0.1301470402
H  H31  1  0.87110000  0.17150000  0.48330000  1.0 0.1301470402
H  H32  1  0.12890000  0.67150000  0.01670000  1.0 0.1301470402
H  H33  1  0.80690000  0.97560000  0.21400000  1.0 0.1301470402
H  H34  1  0.19310000  0.47560000  0.28600000  1.0 0.1301470402
H  H35  1  0.19310000  0.02440000  0.78600000  1.0 0.1301470402
H  H36  1  0.80690000  0.52440000  0.71400000  1.0 0.1301470402
H  H37  1  0.76550000  0.91670000  0.28210000  1.0 0.1401015401
H  H38  1  0.23450000  0.41670000  0.21790000  1.0 0.1401015401
H  H39  1  0.23450000  0.08330000  0.71790000  1.0 0.1401015401
H  H40  1  0.76550000  0.58330000  0.78210000  1.0 0.1401015401
H  H41  1  0.66240000  0.82700000  0.07870000  1.0 0.1237636806
H  H42  1  0.33760000  0.32700000  0.42130000  1.0 0.1237636806
H  H43  1  0.33760000  0.17300000  0.92130000  1.0 0.1237636806
H  H44  1  0.66240000  0.67300000  0.57870000  1.0 0.1237636806
H  H45  1  0.70810000  0.88410000  0.00710000  1.0 0.1301470402
H  H46  1  0.29190000  0.38410000  0.49290000  1.0 0.1301470402
H  H47  1  0.29190000  0.11590000  0.99290000  1.0 0.1301470402
H  H48  1  0.70810000  0.61590000  0.50710000  1.0 0.1301470402
H  H49  1  0.59170000  0.89740000  0.27670000  1.0 0.1301470402
H  H50  1  0.40830000  0.39740000  0.22330000  1.0 0.1301470402
H  H51  1  0.40830000  0.10260000  0.72330000  1.0 0.1301470402
H  H52  1  0.59170000  0.60260000  0.77670000  1.0 0.1301470402
H  H53  1  0.45560000  0.93400000  0.21700000  1.0 0.1301470402
H  H54  1  0.54440000  0.43400000  0.28300000  1.0 0.1301470402
H  H55  1  0.54440000  0.06600000  0.78300000  1.0 0.1301470402
H  H56  1  0.45560000  0.56600000  0.71700000  1.0 0.1301470402
H  H57  1  0.36710000  0.82900000  0.03330000  1.0 0.1401015401
H  H58  1  0.63290000  0.32900000  0.46670000  1.0 0.1401015401
H  H59  1  0.63290000  0.17100000  0.96670000  1.0 0.1401015401
H  H60  1  0.36710000  0.67100000  0.53330000  1.0 0.1401015401
H  H61  1  0.50680000  0.79630000  0.08950000  1.0 0.1237636806
H  H62  1  0.49320000  0.29630000  0.41050000  1.0 0.1237636806
H  H63  1  0.49320000  0.20370000  0.91050000  1.0 0.1237636806
H  H64  1  0.50680000  0.70370000  0.58950000  1.0 0.1237636806
H  H65  1  0.54750000  0.93280000  0.76180000  1.0 0.1301470402
H  H66  1  0.45250000  0.43280000  0.73820000  1.0 0.1301470402
H  H67  1  0.45250000  0.06720000  0.23820000  1.0 0.1301470402
H  H68  1  0.54750000  0.56720000  0.26180000  1.0 0.1301470402
H  H69  1  0.40950000  0.89710000  0.68740000  1.0 0.1301470402
H  H70  1  0.59050000  0.39710000  0.81260000  1.0 0.1301470402
H  H71  1  0.59050000  0.10290000  0.31260000  1.0 0.1301470402
H  H72  1  0.40950000  0.60290000  0.18740000  1.0 0.1301470402
H  H73  1  0.49070000  0.79740000  0.57960000  1.0 0.1237636806
H  H74  1  0.50930000  0.29740000  0.92040000  1.0 0.1237636806
H  H75  1  0.50930000  0.20260000  0.42040000  1.0 0.1237636806
H  H76  1  0.49070000  0.70260000  0.07960000  1.0 0.1237636806
H  H77  1  0.63390000  0.82810000  0.66690000  1.0 0.1401015401
H  H78  1  0.36610000  0.32810000  0.83310000  1.0 0.1401015401
H  H79  1  0.36610000  0.17190000  0.33310000  1.0 0.1401015401
H  H80  1  0.63390000  0.67190000  0.16690000  1.0 0.1401015401
H  H81  1  0.23450000  0.91690000  0.51550000  1.0 0.1401015401
H  H82  1  0.76550000  0.41690000  0.98450000  1.0 0.1401015401
H  H83  1  0.76550000  0.08310000  0.48450000  1.0 0.1401015401
H  H84  1  0.23450000  0.58310000  0.01550000  1.0 0.1401015401
H  H85  1  0.19280000  0.97510000  0.40490000  1.0 0.1301470402
H  H86  1  0.80720000  0.47510000  0.09510000  1.0 0.1301470402
H  H87  1  0.80720000  0.02490000  0.59510000  1.0 0.1301470402
H  H88  1  0.19280000  0.52490000  0.90490000  1.0 0.1301470402
H  H89  1  0.29410000  0.88490000  0.29940000  1.0 0.1301470402
H  H90  1  0.70590000  0.38490000  0.20060000  1.0 0.1301470402
H  H91  1  0.70590000  0.11510000  0.70060000  1.0 0.1301470402
H  H92  1  0.29410000  0.61510000  0.79940000  1.0 0.1301470402
H  H93  1  0.33890000  0.82730000  0.41710000  1.0 0.1237636806
H  H94  1  0.66110000  0.32730000  0.08290000  1.0 0.1237636806
H  H95  1  0.66110000  0.17270000  0.58290000  1.0 0.1237636806
H  H96  1  0.33890000  0.67270000  0.91710000  1.0 0.1237636806
C  C1  1  0.00020000  0.99622000  0.16450000  1.0 0.5705267636
C  C2  1  0.99980000  0.49622000  0.33550000  1.0 0.5705267636
C  C3  1  0.99980000  0.00378000  0.83550000  1.0 0.5705267636
C  C4  1  0.00020000  0.50378000  0.66450000  1.0 0.5705267636
C  C5  1  0.99980000  0.97305000  0.23870000  1.0 -0.0244185639
C  C6  1  0.00020000  0.47305000  0.26130000  1.0 -0.0244185639
C  C7  1  0.00020000  0.02695000  0.76130000  1.0 -0.0244185639
C  C8  1  0.99980000  0.52695000  0.73870000  1.0 -0.0244185639
C  C9  1  0.00000000  0.00270000  0.30010000  1.0 -0.0799522145
C  C10  1  0.00000000  0.50270000  0.19990000  1.0 -0.0799522145
C  C11  1  0.00000000  0.99730000  0.69990000  1.0 -0.0799522145
C  C12  1  0.00000000  0.49730000  0.80010000  1.0 -0.0799522145
C  C13  1  0.99990000  0.98249000  0.36950000  1.0 -0.0904957508
C  C14  1  0.00010000  0.48249000  0.13050000  1.0 -0.0904957508
C  C15  1  0.00010000  0.01751000  0.63050000  1.0 -0.0904957508
C  C16  1  0.99990000  0.51751000  0.86950000  1.0 -0.0904957508
C  C17  1  0.99990000  0.92861000  0.37610000  1.0 -0.0799522145
C  C18  1  0.00010000  0.42861000  0.12390000  1.0 -0.0799522145
C  C19  1  0.00010000  0.07139000  0.62390000  1.0 -0.0799522145
C  C20  1  0.99990000  0.57139000  0.87610000  1.0 -0.0799522145
C  C21  1  0.00040000  0.89773000  0.31480000  1.0 -0.1154167944
C  C22  1  0.99960000  0.39773000  0.18520000  1.0 -0.108112111
C  C23  1  0.99960000  0.10227000  0.68520000  1.0 -0.1154167944
C  C24  1  0.00040000  0.60227000  0.81480000  1.0 -0.1154167944
C  C25  1  0.00020000  0.91975000  0.24790000  1.0 -0.0904957508
C  C26  1  0.99980000  0.41975000  0.25210000  1.0 -0.0904957508
C  C27  1  0.99980000  0.08025000  0.75210000  1.0 -0.0904957508
C  C28  1  0.00020000  0.58025000  0.74790000  1.0 -0.0904957508
C  C29  1  0.00000000  0.83693000  0.45480000  1.0 -0.0904957508
C  C30  1  0.00000000  0.33693000  0.04520000  1.0 -0.0904957508
C  C31  1  0.00000000  0.16307000  0.54520000  1.0 -0.0904957508
C  C32  1  0.00000000  0.66307000  0.95480000  1.0 -0.0904957508
C  C33  1  0.92330000  0.81048000  0.40960000  1.0 -0.0904957508
C  C34  1  0.07670000  0.31048000  0.09040000  1.0 -0.0904957508
C  C35  1  0.07670000  0.18952000  0.59040000  1.0 -0.0904957508
C  C36  1  0.92330000  0.68952000  0.90960000  1.0 -0.0904957508
C  C37  1  0.92330000  0.75839000  0.39760000  1.0 -0.0694151145
C  C38  1  0.07670000  0.25839000  0.10240000  1.0 -0.0694151145
C  C39  1  0.07670000  0.24161000  0.60240000  1.0 -0.0694151145
C  C40  1  0.92330000  0.74161000  0.89760000  1.0 -0.0694151145
C  C41  1  0.99990000  0.73137000  0.42800000  1.0 -0.0312800475
C  C42  1  0.00010000  0.23137000  0.07200000  1.0 -0.0312800475
C  C43  1  0.00010000  0.26863000  0.57200000  1.0 -0.0312800475
C  C44  1  0.99990000  0.76863000  0.92800000  1.0 -0.0312800475
C  C45  1  0.07680000  0.75818000  0.47380000  1.0 -0.0694151145
C  C46  1  0.92320000  0.25818000  0.02620000  1.0 -0.0694151145
C  C47  1  0.92320000  0.24182000  0.52620000  1.0 -0.0694151145
C  C48  1  0.07680000  0.74182000  0.97380000  1.0 -0.0694151145
C  C49  1  0.07700000  0.81079000  0.48670000  1.0 -0.0977992096
C  C50  1  0.92300000  0.31079000  0.01330000  1.0 -0.0977992096
C  C51  1  0.92300000  0.18921000  0.51330000  1.0 -0.0977992096
C  C52  1  0.07700000  0.68921000  0.98670000  1.0 -0.0977992096
C  C53  1  0.00030000  0.67495000  0.41250000  1.0 0.5705267636
C  C54  1  0.99970000  0.17495000  0.08750000  1.0 0.5705267636
C  C55  1  0.99970000  0.32505000  0.58750000  1.0 0.5705267636
C  C56  1  0.00030000  0.82505000  0.91250000  1.0 0.5705267636
C  C57  1  0.79280000  0.97360000  0.06110000  1.0 0.5633525717
C  C58  1  0.20720000  0.47360000  0.43890000  1.0 0.5633525717
C  C59  1  0.20720000  0.02640000  0.93890000  1.0 0.5633525717
C  C60  1  0.79280000  0.52640000  0.56110000  1.0 0.5705267636
C  C61  1  0.76190000  0.93700000  0.10430000  1.0 -0.0039075113
C  C62  1  0.23810000  0.43700000  0.39570000  1.0 -0.0039075113
C  C63  1  0.23810000  0.06300000  0.89570000  1.0 -0.0039075113
C  C64  1  0.76190000  0.56300000  0.60430000  1.0 -0.0039075113
C  C65  1  0.77830000  0.94560000  0.18590000  1.0 -0.0799522145
C  C66  1  0.22170000  0.44560000  0.31410000  1.0 -0.0799522145
C  C67  1  0.22170000  0.05440000  0.81410000  1.0 -0.0799522145
C  C68  1  0.77830000  0.55440000  0.68590000  1.0 -0.0799522145
C  C69  1  0.75270000  0.91030000  0.22700000  1.0 -0.0904957508
C  C70  1  0.24730000  0.41030000  0.27300000  1.0 -0.0904957508
C  C71  1  0.24730000  0.08970000  0.77300000  1.0 -0.0904957508
C  C72  1  0.75270000  0.58970000  0.72700000  1.0 -0.0904957508
C  C73  1  0.70910000  0.86700000  0.18610000  1.0 -0.0904957508
C  C74  1  0.29090000  0.36700000  0.31390000  1.0 -0.0904957508
C  C75  1  0.29090000  0.13300000  0.81390000  1.0 -0.0904957508
C  C76  1  0.70910000  0.63300000  0.68610000  1.0 -0.0904957508
C  C77  1  0.69210000  0.85700000  0.10560000  1.0 -0.0977992096
C  C78  1  0.30790000  0.35700000  0.39440000  1.0 -0.0977992096
C  C79  1  0.30790000  0.14300000  0.89440000  1.0 -0.0977992096
C  C80  1  0.69210000  0.64300000  0.60560000  1.0 -0.0977992096
C  C81  1  0.71880000  0.89150000  0.06120000  1.0 -0.0904957508
C  C82  1  0.28120000  0.39150000  0.43880000  1.0 -0.0977992096
C  C83  1  0.28120000  0.10850000  0.93880000  1.0 -0.0977992096
C  C84  1  0.71880000  0.60850000  0.56120000  1.0 -0.0977992096
C  C85  1  0.56210000  0.84570000  0.18630000  1.0 -0.0694151145
C  C86  1  0.43790000  0.34570000  0.31370000  1.0 -0.0694151145
C  C87  1  0.43790000  0.15430000  0.81370000  1.0 -0.0694151145
C  C88  1  0.56210000  0.65430000  0.68630000  1.0 -0.0694151145
C  C89  1  0.54690000  0.88460000  0.22590000  1.0 -0.108112111
C  C90  1  0.45310000  0.38460000  0.27410000  1.0 -0.108112111
C  C91  1  0.45310000  0.11540000  0.77410000  1.0 -0.108112111
C  C92  1  0.54690000  0.61540000  0.72590000  1.0 -0.108112111
C  C93  1  0.46530000  0.90570000  0.19170000  1.0 -0.0799522145
C  C94  1  0.53470000  0.40570000  0.30830000  1.0 -0.0799522145
C  C95  1  0.53470000  0.09430000  0.80830000  1.0 -0.0799522145
C  C96  1  0.46530000  0.59430000  0.69170000  1.0 -0.0799522145
C  C97  1  0.39810000  0.88370000  0.11870000  1.0 -0.0091466617
C  C98  1  0.60190000  0.38370000  0.38130000  1.0 -0.0091466617
C  C99  1  0.60190000  0.11630000  0.88130000  1.0 -0.0091466617
C  C100  1  0.39810000  0.61630000  0.61870000  1.0 -0.0091466617
C  C101  1  0.41250000  0.84380000  0.08160000  1.0 -0.0694151145
C  C102  1  0.58750000  0.34380000  0.41840000  1.0 -0.0694151145
C  C103  1  0.58750000  0.15620000  0.91840000  1.0 -0.0694151145
C  C104  1  0.41250000  0.65620000  0.58160000  1.0 -0.0694151145
C  C105  1  0.49640000  0.82400000  0.11540000  1.0 -0.0904957508
C  C106  1  0.50360000  0.32400000  0.38460000  1.0 -0.0904957508
C  C107  1  0.50360000  0.17600000  0.88460000  1.0 -0.0904957508
C  C108  1  0.49640000  0.67600000  0.61540000  1.0 -0.0904957508
C  C109  1  0.30940000  0.90790000  0.07980000  1.0 0.5797359875
C  C110  1  0.69060000  0.40790000  0.42020000  1.0 0.5797359875
C  C111  1  0.69060000  0.09210000  0.92020000  1.0 0.5797359875
C  C112  1  0.30940000  0.59210000  0.57980000  1.0 0.5797359875
C  C113  1  0.69080000  0.90780000  0.77120000  1.0 0.5859941623
C  C114  1  0.30920000  0.40780000  0.72880000  1.0 0.5859941623
C  C115  1  0.30920000  0.09220000  0.22880000  1.0 0.5859941623
C  C116  1  0.69080000  0.59220000  0.27120000  1.0 0.5859941623
C  C117  1  0.60220000  0.88350000  0.72030000  1.0 -0.0091466617
C  C118  1  0.39780000  0.38350000  0.77970000  1.0 -0.0091466617
C  C119  1  0.39780000  0.11650000  0.27970000  1.0 -0.0091466617
C  C120  1  0.60220000  0.61650000  0.22030000  1.0 -0.0091466617
C  C121  1  0.53690000  0.90450000  0.72650000  1.0 -0.0799522145
C  C122  1  0.46310000  0.40450000  0.77350000  1.0 -0.0799522145
C  C123  1  0.46310000  0.09550000  0.27350000  1.0 -0.0799522145
C  C124  1  0.53690000  0.59550000  0.22650000  1.0 -0.0799522145
C  C125  1  0.45340000  0.88410000  0.68010000  1.0 -0.0977992096
C  C126  1  0.54660000  0.38410000  0.81990000  1.0 -0.0977992096
C  C127  1  0.54660000  0.11590000  0.31990000  1.0 -0.0977992096
C  C128  1  0.45340000  0.61590000  0.18010000  1.0 -0.0977992096
C  C129  1  0.43800000  0.84570000  0.62530000  1.0 -0.0694151145
C  C130  1  0.56200000  0.34570000  0.87470000  1.0 -0.0694151145
C  C131  1  0.56200000  0.15430000  0.37470000  1.0 -0.0694151145
C  C132  1  0.43800000  0.65430000  0.12530000  1.0 -0.0694151145
C  C133  1  0.50220000  0.82420000  0.61770000  1.0 -0.0904957508
C  C134  1  0.49780000  0.32420000  0.88230000  1.0 -0.0904957508
C  C135  1  0.49780000  0.17580000  0.38230000  1.0 -0.0904957508
C  C136  1  0.50220000  0.67580000  0.11770000  1.0 -0.0904957508
C  C137  1  0.58850000  0.84340000  0.66920000  1.0 -0.0694151145
C  C138  1  0.41150000  0.34340000  0.83080000  1.0 -0.0694151145
C  C139  1  0.41150000  0.15660000  0.33080000  1.0 -0.0694151145
C  C140  1  0.58850000  0.65660000  0.16920000  1.0 -0.0694151145
C  C141  1  0.29110000  0.86730000  0.47700000  1.0 -0.0904957508
C  C142  1  0.70890000  0.36730000  0.02300000  1.0 -0.0904957508
C  C143  1  0.70890000  0.13270000  0.52300000  1.0 -0.0904957508
C  C144  1  0.29110000  0.63270000  0.97700000  1.0 -0.0904957508
C  C145  1  0.24760000  0.91030000  0.47350000  1.0 -0.0904957508
C  C146  1  0.75240000  0.41030000  0.02650000  1.0 -0.0904957508
C  C147  1  0.75240000  0.08970000  0.52650000  1.0 -0.0904957508
C  C148  1  0.24760000  0.58970000  0.97350000  1.0 -0.0904957508
C  C149  1  0.22190000  0.94510000  0.40590000  1.0 -0.0799522145
C  C150  1  0.77810000  0.44510000  0.09410000  1.0 -0.0799522145
C  C151  1  0.77810000  0.05490000  0.59410000  1.0 -0.0799522145
C  C152  1  0.22190000  0.55490000  0.90590000  1.0 -0.0799522145
C  C153  1  0.23780000  0.93670000  0.34130000  1.0 -0.0091466617
C  C154  1  0.76220000  0.43670000  0.15870000  1.0 -0.0091466617
C  C155  1  0.76220000  0.06330000  0.65870000  1.0 -0.0091466617
C  C156  1  0.23780000  0.56330000  0.84130000  1.0 -0.0091466617
C  C157  1  0.28230000  0.89200000  0.34220000  1.0 -0.0904957508
C  C158  1  0.71770000  0.39200000  0.15780000  1.0 -0.0904957508
C  C159  1  0.71770000  0.10800000  0.65780000  1.0 -0.0904957508
C  C160  1  0.28230000  0.60800000  0.84220000  1.0 -0.0904957508
C  C161  1  0.30900000  0.85730000  0.41400000  1.0 -0.0977992096
C  C162  1  0.69100000  0.35730000  0.08600000  1.0 -0.0977992096
C  C163  1  0.69100000  0.14270000  0.58600000  1.0 -0.0977992096
C  C164  1  0.30900000  0.64270000  0.91400000  1.0 -0.0977992096
C  C165  1  0.20800000  0.97430000  0.26790000  1.0 0.5633525717
C  C166  1  0.79200000  0.47430000  0.23210000  1.0 0.5633525717
C  C167  1  0.79200000  0.02570000  0.73210000  1.0 0.5633525717
C  C168  1  0.20800000  0.52570000  0.76790000  1.0 0.5633525717
S  S1  1  0.00014000  0.90386000  0.46593000  1.0 0.9505964151
S  S2  1  0.99986000  0.40386000  0.03407000  1.0 0.9505964151
S  S3  1  0.99986000  0.09614000  0.53407000  1.0 0.9505964151
S  S4  1  0.00014000  0.59614000  0.96593000  1.0 0.9505964151
S  S5  1  0.66791000  0.82377000  0.22820000  1.0 0.9612044276
S  S6  1  0.33209000  0.32377000  0.27180000  1.0 0.9612044276
S  S7  1  0.33209000  0.17623000  0.77180000  1.0 0.9612044276
S  S8  1  0.66791000  0.67623000  0.72820000  1.0 0.9612044276
S  S9  1  0.33239000  0.82386000  0.55999000  1.0 0.96627722
S  S10  1  0.66761000  0.32386000  0.94001000  1.0 0.96627722
S  S11  1  0.66761000  0.17614000  0.44001000  1.0 0.9612044276
S  S12  1  0.33239000  0.67614000  0.05999000  1.0 0.9612044276
O  O1  1  0.89452000  0.04786000  0.97873000  1.0 -0.689528554
O  O2  1  0.10548000  0.54786000  0.52127000  1.0 -0.689528554
O  O3  1  0.10548000  0.95214000  0.02127000  1.0 -0.689528554
O  O4  1  0.89452000  0.45214000  0.47873000  1.0 -0.689528554
O  O5  1  0.10565000  0.04811000  0.08492000  1.0 -0.689528554
O  O6  1  0.89435000  0.54811000  0.41508000  1.0 -0.689528554
O  O7  1  0.89435000  0.95189000  0.91508000  1.0 -0.689528554
O  O8  1  0.10565000  0.45189000  0.58492000  1.0 -0.689528554
O  O9  1  0.00040000  0.96758000  0.10990000  1.0 -0.4617280051
O  O10  1  0.99960000  0.46758000  0.39010000  1.0 -0.4535364925
O  O11  1  0.99960000  0.03242000  0.89010000  1.0 -0.4535364925
O  O12  1  0.00040000  0.53242000  0.60990000  1.0 -0.4535364925
O  O13  1  0.07010000  0.65311000  0.44080000  1.0 -0.4961199114
O  O14  1  0.92990000  0.15311000  0.05920000  1.0 -0.4961199114
O  O15  1  0.92990000  0.34689000  0.55920000  1.0 -0.4961199114
O  O16  1  0.07010000  0.84689000  0.94080000  1.0 -0.4961199114
O  O17  1  0.24900000  0.88629000  0.01870000  1.0 -0.4898881169
O  O18  1  0.75100000  0.38629000  0.48130000  1.0 -0.4898881169
O  O19  1  0.75100000  0.11371000  0.98130000  1.0 -0.4898881169
O  O20  1  0.24900000  0.61371000  0.51870000  1.0 -0.4898881169
O  O21  1  0.81580000  0.01703000  0.09540000  1.0 -0.5284061351
O  O22  1  0.18420000  0.51703000  0.40460000  1.0 -0.5284061351
O  O23  1  0.18420000  0.98297000  0.90460000  1.0 -0.5284061351
O  O24  1  0.81580000  0.48297000  0.59540000  1.0 -0.5284061351
O  O25  1  0.86910000  0.12280000  0.17550000  1.0 -0.2782661498
O  O26  1  0.13090000  0.62280000  0.32450000  1.0 -0.2782661498
O  O27  1  0.13090000  0.87720000  0.82450000  1.0 -0.2782661498
O  O28  1  0.86910000  0.37720000  0.67550000  1.0 -0.2782661498
O  O29  1  0.00020000  0.04624000  0.16290000  1.0 -0.5800657191
O  O30  1  0.99980000  0.54624000  0.33710000  1.0 -0.5800657191
O  O31  1  0.99980000  0.95376000  0.83710000  1.0 -0.5800657191
O  O32  1  0.00020000  0.45376000  0.66290000  1.0 -0.5800657191
O  O33  1  0.93010000  0.65322000  0.37100000  1.0 -0.4961199114
O  O34  1  0.06990000  0.15322000  0.12900000  1.0 -0.4961199114
O  O35  1  0.06990000  0.34678000  0.62900000  1.0 -0.4961199114
O  O36  1  0.93010000  0.84678000  0.87100000  1.0 -0.4961199114
O  O37  1  0.75080000  0.88561000  0.76890000  1.0 -0.4961199114
O  O38  1  0.24920000  0.38561000  0.73110000  1.0 -0.4898881169
O  O39  1  0.24920000  0.11439000  0.23110000  1.0 -0.4898881169
O  O40  1  0.75080000  0.61439000  0.26890000  1.0 -0.4961199114
O  O41  1  0.18390000  0.01695000  0.27890000  1.0 -0.5203471401
O  O42  1  0.81610000  0.51695000  0.22110000  1.0 -0.5203471401
O  O43  1  0.81610000  0.98305000  0.72110000  1.0 -0.5203471401
O  O44  1  0.18390000  0.48305000  0.77890000  1.0 -0.5203471401
O  O45  1  0.13070000  0.12281000  0.30700000  1.0 -0.2782661498
O  O46  1  0.86930000  0.62281000  0.19300000  1.0 -0.2782661498
O  O47  1  0.86930000  0.87719000  0.69300000  1.0 -0.2782661498
O  O48  1  0.13070000  0.37719000  0.80700000  1.0 -0.2782661498
O  O49  1  0.30430000  0.94820000  0.11230000  1.0 -0.5117027381
O  O50  1  0.69570000  0.44820000  0.38770000  1.0 -0.5117027381
O  O51  1  0.69570000  0.05180000  0.88770000  1.0 -0.5117027381
O  O52  1  0.30430000  0.55180000  0.61230000  1.0 -0.5117027381
O  O53  1  0.69540000  0.94830000  0.80820000  1.0 -0.5117027381
O  O54  1  0.30460000  0.44830000  0.69180000  1.0 -0.5117027381
O  O55  1  0.30460000  0.05170000  0.19180000  1.0 -0.5117027381
O  O56  1  0.69540000  0.55170000  0.30820000  1.0 -0.5117027381
O  O57  1  0.78890000  0.95812000  0.99580000  1.0 -0.4808766413
O  O58  1  0.21110000  0.45812000  0.50420000  1.0 -0.4808766413
O  O59  1  0.21110000  0.04188000  0.00420000  1.0 -0.4808766413
O  O60  1  0.78890000  0.54188000  0.49580000  1.0 -0.4808766413
O  O61  1  0.21100000  0.95819000  0.20750000  1.0 -0.4617280051
O  O62  1  0.78900000  0.45819000  0.29250000  1.0 -0.4617280051
O  O63  1  0.78900000  0.04181000  0.79250000  1.0 -0.4617280051
O  O64  1  0.21100000  0.54181000  0.70750000  1.0 -0.4617280051
O  O65  1  0.07980000  0.91909000  0.53940000  1.0 -0.4898881169
O  O66  1  0.92020000  0.41909000  0.96060000  1.0 -0.4898881169
O  O67  1  0.92020000  0.08091000  0.46060000  1.0 -0.4898881169
O  O68  1  0.07980000  0.58091000  0.03940000  1.0 -0.4898881169
O  O69  1  0.92100000  0.91918000  0.46000000  1.0 -0.4898881169
O  O70  1  0.07900000  0.41918000  0.04000000  1.0 -0.4898881169
O  O71  1  0.07900000  0.08082000  0.54000000  1.0 -0.4898881169
O  O72  1  0.92100000  0.58082000  0.96000000  1.0 -0.4898881169
O  O73  1  0.71490000  0.83130000  0.31880000  1.0 -0.4808766413
O  O74  1  0.28510000  0.33130000  0.18120000  1.0 -0.4808766413
O  O75  1  0.28510000  0.16870000  0.68120000  1.0 -0.4808766413
O  O76  1  0.71490000  0.66870000  0.81880000  1.0 -0.4808766413
O  O77  1  0.66520000  0.77321000  0.19500000  1.0 -0.4808766413
O  O78  1  0.33480000  0.27321000  0.30500000  1.0 -0.4808766413
O  O79  1  0.33480000  0.22679000  0.80500000  1.0 -0.4808766413
O  O80  1  0.66520000  0.72679000  0.69500000  1.0 -0.4808766413
O  O81  1  0.28650000  0.82970000  0.60230000  1.0 -0.4617280051
O  O82  1  0.71350000  0.32970000  0.89770000  1.0 -0.4617280051
O  O83  1  0.71350000  0.17030000  0.39770000  1.0 -0.4617280051
O  O84  1  0.28650000  0.67030000  0.10230000  1.0 -0.4617280051
O  O85  1  0.33530000  0.77263000  0.53020000  1.0 -0.4898881169
O  O86  1  0.66470000  0.27263000  0.96980000  1.0 -0.4898881169
O  O87  1  0.66470000  0.22737000  0.46980000  1.0 -0.4898881169
O  O88  1  0.33530000  0.72737000  0.03020000  1.0 -0.4898881169
