# DDEC6 charges by PACMAN v1.1 (https://github.com/mtap-research/PACMAN-charge/)
data_WIVKOD_ASR_pacman
_symmetry_space_group_name_H-M   'P 1'
_cell_length_a   9.46110000
_cell_length_b   13.42400000
_cell_length_c   13.45300000
_cell_angle_alpha   112.64000000
_cell_angle_beta   109.35100000
_cell_angle_gamma   88.41800000
_symmetry_Int_Tables_number   1
_chemical_formula_structural   U5P8H28(CO2)12
_chemical_formula_sum   'U5 P8 H28 C12 O24'
_cell_volume   1478.02715488
_cell_formula_units_Z   1
loop_
 _symmetry_equiv_pos_site_id
 _symmetry_equiv_pos_as_xyz
  1  'x, y, z'
loop_
 _atom_site_type_symbol
 _atom_site_label
 _atom_site_symmetry_multiplicity
 _atom_site_fract_x
 _atom_site_fract_y
 _atom_site_fract_z
 _atom_site_occupancy
 _atom_site_charge
U  U1  1  0.02287000  0.92214000  0.34607000  1.0 1.9708244935
U  U2  1  0.97713000  0.07786000  0.65393000  1.0 1.9821287528
U  U3  1  0.70871000  0.67916000  0.07727000  1.0 1.9854389564
U  U4  1  0.29129000  0.32084000  0.92273000  1.0 1.9821287528
U  U5  1  0.00000000  0.00000000  0.00000000  1.0 2.1264964477
P  P1  1  0.73369000  0.85155000  0.38341000  1.0 1.291798009
P  P2  1  0.26631000  0.14845000  0.61659000  1.0 1.291798009
P  P3  1  0.47476000  0.56753000  0.18082000  1.0 1.3537722961
P  P4  1  0.52524000  0.43247000  0.81918000  1.0 1.3537722961
P  P5  1  0.27879000  0.05542000  0.28023000  1.0 1.3350772992
P  P6  1  0.72121000  0.94458000  0.71977000  1.0 1.3338636294
P  P7  1  0.00049000  0.74905000  0.04756000  1.0 1.3025673762
P  P8  1  0.99951000  0.25095000  0.95244000  1.0 1.3025673762
H  H1  1  0.63600000  0.96650000  0.24370000  1.0 0.0508111254
H  H2  1  0.36400000  0.03350000  0.75630000  1.0 0.0508111254
H  H3  1  0.61480000  0.06170000  0.35260000  1.0 0.0815631584
H  H4  1  0.38520000  0.93830000  0.64740000  1.0 0.0815631584
H  H5  1  0.30610000  0.56260000  0.26890000  1.0 0.1404731451
H  H6  1  0.69390000  0.43740000  0.73110000  1.0 0.1404731451
H  H7  1  0.35650000  0.68490000  0.29500000  1.0 0.1301206102
H  H8  1  0.64350000  0.31510000  0.70500000  1.0 0.1301206102
H  H9  1  0.09610000  0.63350000  0.18760000  1.0 0.0599062875
H  H10  1  0.90390000  0.36650000  0.81240000  1.0 0.0599062875
H  H11  1  0.13550000  0.54220000  0.08510000  1.0 0.0691845738
H  H12  1  0.86450000  0.45780000  0.91490000  1.0 0.0691845738
H  H13  1  0.37050000  0.93010000  0.15130000  1.0 0.1301206102
H  H14  1  0.62950000  0.06990000  0.84870000  1.0 0.1301206102
H  H15  1  0.43050000  0.05030000  0.17650000  1.0 0.1404731451
H  H16  1  0.56950000  0.94970000  0.82350000  1.0 0.1301206102
H  H17  1  0.21100000  0.66360000  0.03030000  1.0 0.1481930227
H  H18  1  0.78900000  0.33640000  0.96970000  1.0 0.1481930227
H  H19  1  0.25130000  0.76000000  0.15430000  1.0 0.1404731451
H  H20  1  0.74870000  0.24000000  0.84570000  1.0 0.1404731451
H  H21  1  0.48150000  0.84820000  0.28570000  1.0 0.1301206102
H  H22  1  0.51850000  0.15180000  0.71430000  1.0 0.1301206102
H  H23  1  0.53220000  0.94450000  0.41060000  1.0 0.1404731451
H  H24  1  0.46780000  0.05550000  0.58940000  1.0 0.1404731451
H  H25  1  0.63700000  0.63260000  0.33740000  1.0 0.3654608861
H  H26  1  0.36300000  0.36740000  0.66260000  1.0 0.3654608861
H  H27  1  0.32910000  0.17500000  0.43700000  1.0 0.3654608861
H  H28  1  0.67090000  0.82500000  0.56300000  1.0 0.3654608861
C  C1  1  0.56930000  0.99000000  0.28980000  1.0 -0.0727516949
C  C2  1  0.43070000  0.01000000  0.71020000  1.0 -0.0727516949
C  C3  1  0.32290000  0.61130000  0.23320000  1.0 -0.5383404359
C  C4  1  0.67710000  0.38870000  0.76680000  1.0 -0.5383404359
C  C5  1  0.17060000  0.61520000  0.14800000  1.0 -0.094502525
C  C6  1  0.82940000  0.38480000  0.85200000  1.0 -0.094502525
C  C7  1  0.41460000  0.00240000  0.21330000  1.0 -0.5505991444
C  C8  1  0.58540000  0.99760000  0.78670000  1.0 -0.5553061232
C  C9  1  0.17570000  0.69790000  0.09600000  1.0 -0.5339081749
C  C10  1  0.82430000  0.30210000  0.90400000  1.0 -0.5339081749
C  C11  1  0.56160000  0.90810000  0.34210000  1.0 -0.5505991444
C  C12  1  0.43840000  0.09190000  0.65790000  1.0 -0.5505991444
O  O1  1  0.86410000  0.94380000  0.46680000  1.0 -0.9742678269
O  O2  1  0.13590000  0.05620000  0.53320000  1.0 -0.9765379294
O  O3  1  0.78440000  0.80200000  0.27780000  1.0 -0.9564802512
O  O4  1  0.21560000  0.19800000  0.72220000  1.0 -0.9564802512
O  O5  1  0.95200000  0.80330000  0.15480000  1.0 -0.9742678269
O  O6  1  0.04800000  0.19670000  0.84520000  1.0 -0.9765379294
O  O7  1  0.23420000  0.97690000  0.32480000  1.0 -0.8478260501
O  O8  1  0.76580000  0.02310000  0.67520000  1.0 -0.8478260501
O  O9  1  0.51470000  0.64580000  0.13460000  1.0 -0.8616492018
O  O10  1  0.48530000  0.35420000  0.86540000  1.0 -0.8616492018
O  O11  1  0.87020000  0.66170000  0.96400000  1.0 -0.8253945574
O  O12  1  0.12980000  0.33830000  0.03600000  1.0 -0.8253945574
O  O13  1  0.43740000  0.45030000  0.09590000  1.0 -0.8478260501
O  O14  1  0.56260000  0.54970000  0.90410000  1.0 -0.8478260501
O  O15  1  0.03310000  0.83190000  0.00410000  1.0 -0.8955876693
O  O16  1  0.96690000  0.16810000  0.99590000  1.0 -0.8955876693
O  O17  1  0.14570000  0.07660000  0.19360000  1.0 -0.9167469605
O  O18  1  0.85430000  0.92340000  0.80640000  1.0 -0.9167469605
O  O19  1  0.61070000  0.56870000  0.28780000  1.0 -0.6116863355
O  O20  1  0.38930000  0.43130000  0.71220000  1.0 -0.6116863355
O  O21  1  0.36020000  0.16450000  0.38250000  1.0 -0.6116863355
O  O22  1  0.63980000  0.83550000  0.61750000  1.0 -0.6116863355
O  O23  1  0.71140000  0.77270000  0.43320000  1.0 -0.7258274421
O  O24  1  0.28860000  0.22730000  0.56680000  1.0 -0.7242348656
