# DDEC6 charges by PACMAN v1.1 (https://github.com/mtap-research/PACMAN-charge/)
data_WIVRAW02_FSR_pacman
_symmetry_space_group_name_H-M   'P 1'
_cell_length_a   7.08500000
_cell_length_b   13.33400000
_cell_length_c   14.38300000
_cell_angle_alpha   110.34000000
_cell_angle_beta   90.02000000
_cell_angle_gamma   105.40000000
_symmetry_Int_Tables_number   1
_chemical_formula_structural   Fe3H13Pd3C19(SN3)4
_chemical_formula_sum   'Fe6 H26 Pd6 C38 S8 N24'
_cell_volume   1221.84375195
_cell_formula_units_Z   2
loop_
 _symmetry_equiv_pos_site_id
 _symmetry_equiv_pos_as_xyz
  1  'x, y, z'
loop_
 _atom_site_type_symbol
 _atom_site_label
 _atom_site_symmetry_multiplicity
 _atom_site_fract_x
 _atom_site_fract_y
 _atom_site_fract_z
 _atom_site_occupancy
 _atom_site_charge
Fe  Fe1  1  0.00000000  0.00000000  0.50000000  1.0 0.318637097
Fe  Fe2  1  0.00000000  0.00000000  0.00000000  1.0 0.318637097
Fe  Fe3  1  0.00200000  0.00300000  0.35200000  1.0 0.3025276453
Fe  Fe4  1  0.99800000  0.99700000  0.64800000  1.0 0.3025276453
Fe  Fe5  1  0.99900000  0.00200000  0.15200000  1.0 0.2561148793
Fe  Fe6  1  0.00100000  0.99800000  0.84800000  1.0 0.2561148793
H  H1  1  0.26220000  0.52030000  0.72080000  1.0 0.1015410774
H  H2  1  0.73780000  0.47970000  0.27920000  1.0 0.1015410774
H  H3  1  0.20310000  0.40470000  0.58190000  1.0 0.1116993443
H  H4  1  0.79690000  0.59530000  0.41810000  1.0 0.1116993443
H  H5  1  0.11790000  0.24150000  0.15610000  1.0 0.1116993443
H  H6  1  0.88210000  0.75850000  0.84390000  1.0 0.1116993443
H  H7  1  0.09550000  0.19000000  0.72140000  1.0 0.1116993443
H  H8  1  0.90450000  0.81000000  0.27860000  1.0 0.1116993443
H  H9  1  0.37380000  0.73680000  0.81660000  1.0 0.1278873158
H  H10  1  0.62620000  0.26320000  0.18340000  1.0 0.1278873158
H  H11  1  0.39940000  0.87110000  0.99040000  1.0 0.0917584129
H  H12  1  0.60060000  0.12890000  0.00960000  1.0 0.0917584129
H  H13  1  0.20860000  0.41360000  0.24080000  1.0 0.1116993443
H  H14  1  0.79140000  0.58640000  0.75920000  1.0 0.1116993443
H  H15  1  0.30710000  0.78730000  0.10470000  1.0 0.0680080296
H  H16  1  0.69290000  0.21270000  0.89530000  1.0 0.0680080296
H  H17  1  0.28040000  0.55920000  0.41640000  1.0 0.1187479843
H  H18  1  0.71960000  0.44080000  0.58360000  1.0 0.1187479843
H  H19  1  0.17530000  0.34520000  0.92750000  1.0 0.1015410774
H  H20  1  0.82470000  0.65480000  0.07250000  1.0 0.1015410774
H  H21  1  0.40370000  0.86400000  0.40840000  1.0 0.1116993443
H  H22  1  0.59630000  0.13600000  0.59160000  1.0 0.1116993443
H  H23  1  0.37950000  0.75730000  0.51100000  1.0 0.1187479843
H  H24  1  0.62050000  0.24270000  0.48900000  1.0 0.1187479843
H  H25  1  0.48040000  0.78640000  0.10570000  1.0 0.0680080296
H  H26  1  0.51960000  0.21360000  0.89430000  1.0 0.0680080296
Pd  Pd1  1  0.51864000  0.03734000  0.26172000  1.0 0.1187479843
Pd  Pd2  1  0.48136000  0.96266000  0.73828000  1.0 0.1187479843
Pd  Pd3  1  0.48100000  0.96200000  0.38460000  1.0 0.1278873158
Pd  Pd4  1  0.51900000  0.03800000  0.61540000  1.0 0.1278873158
Pd  Pd5  1  0.47900000  0.96000000  0.08530000  1.0 0.188908057
Pd  Pd6  1  0.52100000  0.04000000  0.91470000  1.0 0.188908057
C  C1  1  0.32120000  0.03920000  0.16380000  1.0 -0.0588618538
C  C2  1  0.67880000  0.96080000  0.83620000  1.0 -0.0588618538
C  C3  1  0.71330000  0.02850000  0.35670000  1.0 -0.0837197362
C  C4  1  0.28670000  0.97150000  0.64330000  1.0 -0.0837197362
C  C5  1  0.31560000  0.02850000  0.35660000  1.0 -0.0860582053
C  C6  1  0.68440000  0.97150000  0.64340000  1.0 -0.0860582053
C  C7  1  0.71640000  0.03930000  0.16390000  1.0 -0.0588618538
C  C8  1  0.28360000  0.96070000  0.83610000  1.0 -0.0651473089
C  C9  1  0.25580000  0.51080000  0.78330000  1.0 -0.0262538766
C  C10  1  0.74420000  0.48920000  0.21670000  1.0 -0.0262538766
C  C11  1  0.16900000  0.33700000  0.59440000  1.0 0.0509650351
C  C12  1  0.83100000  0.66300000  0.40560000  1.0 0.0509650351
C  C13  1  0.11980000  0.24300000  0.09050000  1.0 0.0829243601
C  C14  1  0.88020000  0.75700000  0.90950000  1.0 0.0829243601
C  C15  1  0.11050000  0.22010000  0.67000000  1.0 -0.0521509675
C  C16  1  0.88950000  0.77990000  0.33000000  1.0 -0.0521509675
C  C17  1  0.36040000  0.71720000  0.87420000  1.0 -0.2130866258
C  C18  1  0.63960000  0.28280000  0.12580000  1.0 -0.2130866258
C  C19  1  0.30240000  0.60890000  0.87140000  1.0 -0.0521509675
C  C20  1  0.69760000  0.39110000  0.12860000  1.0 -0.0521509675
C  C21  1  0.39740000  0.79520000  0.97210000  1.0 -0.0588618538
C  C22  1  0.60260000  0.20480000  0.02790000  1.0 -0.0588618538
C  C23  1  0.23710000  0.47350000  0.21690000  1.0 -0.01255145
C  C24  1  0.76290000  0.52650000  0.78310000  1.0 -0.01255145
C  C25  1  0.31600000  0.74630000  0.03690000  1.0 -0.1211771129
C  C26  1  0.68400000  0.25370000  0.96310000  1.0 -0.1211771129
C  C27  1  0.29440000  0.58540000  0.28990000  1.0 -0.0521509675
C  C28  1  0.70560000  0.41460000  0.71010000  1.0 -0.0521509675
C  C29  1  0.30800000  0.61310000  0.38540000  1.0 -0.1705421566
C  C30  1  0.69200000  0.38690000  0.61460000  1.0 -0.1705421566
C  C31  1  0.15100000  0.29840000  0.96570000  1.0 -0.0170216186
C  C32  1  0.84900000  0.70160000  0.03430000  1.0 -0.01255145
C  C33  1  0.39220000  0.78650000  0.38630000  1.0 -0.1848160087
C  C34  1  0.60780000  0.21350000  0.61370000  1.0 -0.1848160087
C  C35  1  0.36400000  0.72700000  0.44020000  1.0 -0.1029656067
C  C36  1  0.63600000  0.27300000  0.55980000  1.0 -0.1029656067
C  C37  1  0.43100000  0.74570000  0.03780000  1.0 -0.1211771129
C  C38  1  0.56900000  0.25430000  0.96220000  1.0 -0.1211771129
S  S1  1  0.23340000  0.60680000  0.98550000  1.0 0.1187479843
S  S2  1  0.76660000  0.39320000  0.01450000  1.0 0.1187479843
S  S3  1  0.29550000  0.70160000  0.26480000  1.0 0.1278873158
S  S4  1  0.70450000  0.29840000  0.73520000  1.0 0.1278873158
S  S5  1  0.37420000  0.60690000  0.98580000  1.0 0.1116993443
S  S6  1  0.62580000  0.39310000  0.01420000  1.0 0.1187479843
S  S7  1  0.40660000  0.70150000  0.26490000  1.0 0.1278873158
S  S8  1  0.59340000  0.29850000  0.73510000  1.0 0.1278873158
N  N1  1  0.81820000  0.01900000  0.41190000  1.0 -0.1860920746
N  N2  1  0.18180000  0.98100000  0.58810000  1.0 -0.1860920746
N  N3  1  0.20800000  0.03240000  0.10350000  1.0 -0.2039171405
N  N4  1  0.79200000  0.96760000  0.89650000  1.0 -0.2039171405
N  N5  1  0.20100000  0.01900000  0.41130000  1.0 -0.1860920746
N  N6  1  0.79900000  0.98100000  0.58870000  1.0 -0.1848160087
N  N7  1  0.07860000  0.15730000  0.01130000  1.0 -0.1211771129
N  N8  1  0.92140000  0.84270000  0.98870000  1.0 -0.1211771129
N  N9  1  0.08120000  0.16180000  0.57500000  1.0 -0.1375984757
N  N10  1  0.91880000  0.83820000  0.42500000  1.0 -0.1375984757
N  N11  1  0.11850000  0.23680000  0.52620000  1.0 -0.1547123252
N  N12  1  0.88150000  0.76320000  0.47380000  1.0 -0.1557550191
N  N13  1  0.16460000  0.32880000  0.68460000  1.0 0.0680080296
N  N14  1  0.83540000  0.67120000  0.31540000  1.0 0.0680080296
N  N15  1  0.20600000  0.41140000  0.78280000  1.0 -0.2951583176
N  N16  1  0.79400000  0.58860000  0.21720000  1.0 -0.2951583176
N  N17  1  0.16700000  0.33660000  0.06870000  1.0 0.0178789549
N  N18  1  0.83300000  0.66340000  0.93130000  1.0 0.0178789549
N  N19  1  0.10000000  0.19490000  0.92970000  1.0 -0.1705421566
N  N20  1  0.90000000  0.80510000  0.07030000  1.0 -0.1705421566
N  N21  1  0.82450000  0.03230000  0.10350000  1.0 -0.2039171405
N  N22  1  0.17550000  0.96770000  0.89650000  1.0 -0.2039171405
N  N23  1  0.22300000  0.45110000  0.13100000  1.0 -0.2446765213
N  N24  1  0.77700000  0.54890000  0.86900000  1.0 -0.2446765213
