# DDEC6 charges by PACMAN v1.1 (https://github.com/mtap-research/PACMAN-charge/)
data_WIWKIX_FSR_pacman
_symmetry_space_group_name_H-M   'P 1'
_cell_length_a   13.86400000
_cell_length_b   13.87370000
_cell_length_c   21.11620000
_cell_angle_alpha   90.00000000
_cell_angle_beta   102.53100000
_cell_angle_gamma   90.00000000
_symmetry_Int_Tables_number   1
_chemical_formula_structural   NiH20C26(SN2)5
_chemical_formula_sum   'Ni4 H80 C104 S20 N40'
_cell_volume   3964.84276630
_cell_formula_units_Z   4
loop_
 _symmetry_equiv_pos_site_id
 _symmetry_equiv_pos_as_xyz
  1  'x, y, z'
loop_
 _atom_site_type_symbol
 _atom_site_label
 _atom_site_symmetry_multiplicity
 _atom_site_fract_x
 _atom_site_fract_y
 _atom_site_fract_z
 _atom_site_occupancy
 _atom_site_charge
Ni  Ni1  1  0.71043000  0.78247000  0.24227000  1.0 0.5703073156
Ni  Ni2  1  0.28957000  0.28247000  0.25773000  1.0 0.5703073156
Ni  Ni3  1  0.28957000  0.21753000  0.75773000  1.0 0.5703073156
Ni  Ni4  1  0.71043000  0.71753000  0.74227000  1.0 0.5703073156
H  H1  1  0.50330000  0.85920000  0.23770000  1.0 0.0988004395
H  H2  1  0.49670000  0.35920000  0.26230000  1.0 0.0988004395
H  H3  1  0.49670000  0.14080000  0.76230000  1.0 0.0988004395
H  H4  1  0.50330000  0.64080000  0.73770000  1.0 0.0988004395
H  H5  1  0.35000000  0.86860000  0.16970000  1.0 0.1203486167
H  H6  1  0.65000000  0.36860000  0.33030000  1.0 0.1203486167
H  H7  1  0.65000000  0.13140000  0.83030000  1.0 0.1203486167
H  H8  1  0.35000000  0.63140000  0.66970000  1.0 0.1203486167
H  H9  1  0.45340000  0.71090000  0.03900000  1.0 0.1316233662
H  H10  1  0.54660000  0.21090000  0.46100000  1.0 0.1316233662
H  H11  1  0.54660000  0.28910000  0.96100000  1.0 0.1316233662
H  H12  1  0.45340000  0.78910000  0.53900000  1.0 0.1316233662
H  H13  1  0.60350000  0.70440000  0.11130000  1.0 0.0988004395
H  H14  1  0.39650000  0.20440000  0.38870000  1.0 0.0988004395
H  H15  1  0.39650000  0.29560000  0.88870000  1.0 0.0988004395
H  H16  1  0.60350000  0.79560000  0.61130000  1.0 0.0988004395
H  H17  1  0.23500000  0.82940000  0.06650000  1.0 0.0988004395
H  H18  1  0.76500000  0.32940000  0.43350000  1.0 0.0988004395
H  H19  1  0.76500000  0.17060000  0.93350000  1.0 0.0988004395
H  H20  1  0.23500000  0.67060000  0.56650000  1.0 0.0988004395
H  H21  1  0.18320000  0.65480000  0.92240000  1.0 0.1063969961
H  H22  1  0.81680000  0.15480000  0.57760000  1.0 0.1063969961
H  H23  1  0.81680000  0.34520000  0.07760000  1.0 0.0988004395
H  H24  1  0.18320000  0.84520000  0.42240000  1.0 0.1063969961
H  H25  1  0.85250000  0.84770000  0.83750000  1.0 0.0897749094
H  H26  1  0.14750000  0.34770000  0.66250000  1.0 0.0897749094
H  H27  1  0.14750000  0.15230000  0.16250000  1.0 0.0897749094
H  H28  1  0.85250000  0.65230000  0.33750000  1.0 0.0897749094
H  H29  1  0.00460000  0.84720000  0.90480000  1.0 0.1063969961
H  H30  1  0.99540000  0.34720000  0.59520000  1.0 0.0988004395
H  H31  1  0.99540000  0.15280000  0.09520000  1.0 0.0988004395
H  H32  1  0.00460000  0.65280000  0.40480000  1.0 0.1063969961
H  H33  1  0.04170000  0.57730000  0.84700000  1.0 0.1063969961
H  H34  1  0.95830000  0.07730000  0.65300000  1.0 0.1063969961
H  H35  1  0.95830000  0.42270000  0.15300000  1.0 0.1063969961
H  H36  1  0.04170000  0.92270000  0.34700000  1.0 0.1063969961
H  H37  1  0.88580000  0.58270000  0.78300000  1.0 0.0988004395
H  H38  1  0.11420000  0.08270000  0.71700000  1.0 0.0988004395
H  H39  1  0.11420000  0.41730000  0.21700000  1.0 0.0988004395
H  H40  1  0.88580000  0.91730000  0.28300000  1.0 0.0988004395
H  H41  1  0.87110000  0.74680000  0.16660000  1.0 0.0988004395
H  H42  1  0.12890000  0.24680000  0.33340000  1.0 0.0988004395
H  H43  1  0.12890000  0.25320000  0.83340000  1.0 0.0988004395
H  H44  1  0.87110000  0.75320000  0.66666667  1.0 0.0988004395
H  H45  1  0.94780000  0.82840000  0.08930000  1.0 0.1316233662
H  H46  1  0.05220000  0.32840000  0.41070000  1.0 0.1316233662
H  H47  1  0.05220000  0.17160000  0.91070000  1.0 0.1316233662
H  H48  1  0.94780000  0.67160000  0.58930000  1.0 0.1316233662
H  H49  1  0.74120000  0.03070000  0.07170000  1.0 0.1316233662
H  H50  1  0.25880000  0.53070000  0.42830000  1.0 0.1316233662
H  H51  1  0.25880000  0.96930000  0.92830000  1.0 0.1316233662
H  H52  1  0.74120000  0.46930000  0.57170000  1.0 0.1316233662
H  H53  1  0.68040000  0.95390000  0.15160000  1.0 0.0988004395
H  H54  1  0.31960000  0.45390000  0.34840000  1.0 0.0988004395
H  H55  1  0.31960000  0.04610000  0.84840000  1.0 0.0988004395
H  H56  1  0.68040000  0.54610000  0.65160000  1.0 0.0988004395
H  H57  1  0.85930000  0.03580000  0.00020000  1.0 0.0897749094
H  H58  1  0.14070000  0.53580000  0.49980000  1.0 0.0897749094
H  H59  1  0.14070000  0.96420000  0.99980000  1.0 0.0897749094
H  H60  1  0.85930000  0.46420000  0.50020000  1.0 0.0897749094
H  H61  1  0.71630000  0.81660000  0.38550000  1.0 0.0988004395
H  H62  1  0.28370000  0.31660000  0.11450000  1.0 0.0988004395
H  H63  1  0.28370000  0.18340000  0.61450000  1.0 0.0988004395
H  H64  1  0.71630000  0.68340000  0.88550000  1.0 0.0988004395
H  H65  1  0.66666667  0.74580000  0.47240000  1.0 0.1316233662
H  H66  1  0.33340000  0.24580000  0.02760000  1.0 0.1316233662
H  H67  1  0.33340000  0.25420000  0.52760000  1.0 0.1316233662
H  H68  1  0.66666667  0.75420000  0.97240000  1.0 0.1316233662
H  H69  1  0.52110000  0.54620000  0.34990000  1.0 0.1203486167
H  H70  1  0.47890000  0.04620000  0.15010000  1.0 0.1203486167
H  H71  1  0.47890000  0.45380000  0.65010000  1.0 0.1203486167
H  H72  1  0.52110000  0.95380000  0.84990000  1.0 0.1203486167
H  H73  1  0.57590000  0.62080000  0.26780000  1.0 0.0897749094
H  H74  1  0.42410000  0.12080000  0.23220000  1.0 0.0897749094
H  H75  1  0.42410000  0.37920000  0.73220000  1.0 0.0897749094
H  H76  1  0.57590000  0.87920000  0.76780000  1.0 0.0897749094
H  H77  1  0.57620000  0.62070000  0.51770000  1.0 0.0897749094
H  H78  1  0.42380000  0.12070000  0.98230000  1.0 0.0897749094
H  H79  1  0.42380000  0.37930000  0.48230000  1.0 0.0897749094
H  H80  1  0.57620000  0.87930000  0.01770000  1.0 0.0897749094
C  C1  1  0.49320000  0.82900000  0.19690000  1.0 0.0573597581
C  C2  1  0.50680000  0.32900000  0.30310000  1.0 0.0573597581
C  C3  1  0.50680000  0.17100000  0.80310000  1.0 0.0573597581
C  C4  1  0.49320000  0.67100000  0.69690000  1.0 0.0573597581
C  C5  1  0.40110000  0.83500000  0.15650000  1.0 -0.1820650089
C  C6  1  0.59890000  0.33500000  0.34350000  1.0 -0.1820650089
C  C7  1  0.59890000  0.16500000  0.84350000  1.0 -0.1820650089
C  C8  1  0.40110000  0.66500000  0.65650000  1.0 -0.1820650089
C  C9  1  0.38470000  0.79130000  0.09660000  1.0 0.0897749094
C  C10  1  0.61530000  0.29130000  0.40340000  1.0 0.0897749094
C  C11  1  0.61530000  0.20870000  0.90340000  1.0 0.0897749094
C  C12  1  0.38470000  0.70870000  0.59660000  1.0 0.0897749094
C  C13  1  0.46200000  0.74180000  0.07940000  1.0 -0.1820650089
C  C14  1  0.53800000  0.24180000  0.42060000  1.0 -0.1912704307
C  C15  1  0.53800000  0.25820000  0.92060000  1.0 -0.1912704307
C  C16  1  0.46200000  0.75820000  0.57940000  1.0 -0.1912704307
C  C17  1  0.55140000  0.73880000  0.12280000  1.0 0.0527531538
C  C18  1  0.44860000  0.23880000  0.37720000  1.0 0.0527531538
C  C19  1  0.44860000  0.26120000  0.87720000  1.0 0.0527531538
C  C20  1  0.55140000  0.76120000  0.62280000  1.0 0.0527531538
C  C21  1  0.28650000  0.79730000  0.05270000  1.0 0.0378699588
C  C22  1  0.71350000  0.29730000  0.44730000  1.0 0.0378699588
C  C23  1  0.71350000  0.20270000  0.94730000  1.0 0.0378699588
C  C24  1  0.28650000  0.70270000  0.55270000  1.0 0.0378699588
C  C25  1  0.14240000  0.70810000  0.92500000  1.0 0.0573597581
C  C26  1  0.85760000  0.20810000  0.57500000  1.0 0.0527531538
C  C27  1  0.85760000  0.29190000  0.07500000  1.0 0.0573597581
C  C28  1  0.14240000  0.79190000  0.42500000  1.0 0.0573597581
C  C29  1  0.89120000  0.79160000  0.84010000  1.0 0.0287468674
C  C30  1  0.10880000  0.29160000  0.65990000  1.0 0.0287468674
C  C31  1  0.10880000  0.20840000  0.15990000  1.0 0.0287468674
C  C32  1  0.89120000  0.70840000  0.34010000  1.0 0.0287468674
C  C33  1  0.98200000  0.79210000  0.88010000  1.0 -0.1707170389
C  C34  1  0.01800000  0.29210000  0.61990000  1.0 -0.1707170389
C  C35  1  0.01800000  0.20790000  0.11990000  1.0 -0.1707170389
C  C36  1  0.98200000  0.70790000  0.38010000  1.0 -0.1707170389
C  C37  1  0.04190000  0.71050000  0.88440000  1.0 0.0897749094
C  C38  1  0.95810000  0.21050000  0.61560000  1.0 0.0897749094
C  C39  1  0.95810000  0.28950000  0.11560000  1.0 0.0897749094
C  C40  1  0.04190000  0.78950000  0.38440000  1.0 0.0897749094
C  C41  1  0.00360000  0.63340000  0.84640000  1.0 -0.1820650089
C  C42  1  0.99640000  0.13340000  0.65360000  1.0 -0.1820650089
C  C43  1  0.99640000  0.36660000  0.15360000  1.0 -0.1820650089
C  C44  1  0.00360000  0.86660000  0.34640000  1.0 -0.1820650089
C  C45  1  0.91040000  0.63720000  0.80780000  1.0 0.0573597581
C  C46  1  0.08960000  0.13720000  0.69220000  1.0 0.0527531538
C  C47  1  0.08960000  0.36280000  0.19220000  1.0 0.0527531538
C  C48  1  0.91040000  0.86280000  0.30780000  1.0 0.0527531538
C  C49  1  0.84520000  0.80570000  0.14850000  1.0 0.0897749094
C  C50  1  0.15480000  0.30570000  0.35150000  1.0 0.0897749094
C  C51  1  0.15480000  0.19430000  0.85150000  1.0 0.0897749094
C  C52  1  0.84520000  0.69430000  0.64850000  1.0 0.0897749094
C  C53  1  0.89170000  0.85410000  0.10150000  1.0 -0.1596208315
C  C54  1  0.10830000  0.35410000  0.39850000  1.0 -0.1596208315
C  C55  1  0.10830000  0.14590000  0.89850000  1.0 -0.1596208315
C  C56  1  0.89170000  0.64590000  0.60150000  1.0 -0.1596208315
C  C57  1  0.85050000  0.93700000  0.07660000  1.0 0.0897749094
C  C58  1  0.14950000  0.43700000  0.42340000  1.0 0.0897749094
C  C59  1  0.14950000  0.06300000  0.92340000  1.0 0.0897749094
C  C60  1  0.85050000  0.56300000  0.57660000  1.0 0.0897749094
C  C61  1  0.77100000  0.97440000  0.09160000  1.0 -0.1707170389
C  C62  1  0.22900000  0.47440000  0.40840000  1.0 -0.1707170389
C  C63  1  0.22900000  0.02560000  0.90840000  1.0 -0.1707170389
C  C64  1  0.77100000  0.52560000  0.59160000  1.0 -0.1707170389
C  C65  1  0.73440000  0.92600000  0.13800000  1.0 0.0378699588
C  C66  1  0.26560000  0.42600000  0.36200000  1.0 0.0378699588
C  C67  1  0.26560000  0.07400000  0.86200000  1.0 0.0378699588
C  C68  1  0.73440000  0.57400000  0.63800000  1.0 0.0378699588
C  C69  1  0.89690000  0.98980000  0.02760000  1.0 0.0573597581
C  C70  1  0.10310000  0.48980000  0.47240000  1.0 0.0573597581
C  C71  1  0.10310000  0.01020000  0.97240000  1.0 0.0573597581
C  C72  1  0.89690000  0.51020000  0.52760000  1.0 0.0573597581
C  C73  1  0.67730000  0.76070000  0.37850000  1.0 0.0846992967
C  C74  1  0.32270000  0.26070000  0.12150000  1.0 0.0897749094
C  C75  1  0.32270000  0.23930000  0.62150000  1.0 0.0846992967
C  C76  1  0.67730000  0.73930000  0.87850000  1.0 0.0897749094
C  C77  1  0.64730000  0.71890000  0.43070000  1.0 -0.1912704307
C  C78  1  0.35270000  0.21890000  0.06930000  1.0 -0.1912704307
C  C79  1  0.35270000  0.28110000  0.56930000  1.0 -0.1912704307
C  C80  1  0.64730000  0.78110000  0.93070000  1.0 -0.1912704307
C  C81  1  0.58920000  0.63760000  0.42100000  1.0 0.1063969961
C  C82  1  0.41080000  0.13760000  0.07900000  1.0 0.1063969961
C  C83  1  0.41080000  0.36240000  0.57900000  1.0 0.1063969961
C  C84  1  0.58920000  0.86240000  0.92100000  1.0 0.1063969961
C  C85  1  0.56170000  0.60100000  0.35850000  1.0 -0.1596208315
C  C86  1  0.43830000  0.10100000  0.14150000  1.0 -0.1596208315
C  C87  1  0.43830000  0.39900000  0.64150000  1.0 -0.1596208315
C  C88  1  0.56170000  0.89900000  0.85850000  1.0 -0.1596208315
C  C89  1  0.59470000  0.64600000  0.31000000  1.0 0.0527531538
C  C90  1  0.40530000  0.14600000  0.19000000  1.0 0.0527531538
C  C91  1  0.40530000  0.35400000  0.69000000  1.0 0.0527531538
C  C92  1  0.59470000  0.85400000  0.81000000  1.0 0.0527531538
C  C93  1  0.55870000  0.59170000  0.47650000  1.0 0.0378699588
C  C94  1  0.44130000  0.09170000  0.02350000  1.0 0.0378699588
C  C95  1  0.44130000  0.40830000  0.52350000  1.0 0.0378699588
C  C96  1  0.55870000  0.90830000  0.97650000  1.0 0.0378699588
C  C97  1  0.66666667  0.98920000  0.28970000  1.0 0.0897749094
C  C98  1  0.33340000  0.48920000  0.21030000  1.0 0.0897749094
C  C99  1  0.33340000  0.01080000  0.71030000  1.0 0.0897749094
C  C100  1  0.66666667  0.51080000  0.78970000  1.0 0.0897749094
C  C101  1  0.75510000  0.56600000  0.21540000  1.0 0.0069229033
C  C102  1  0.24490000  0.06600000  0.28460000  1.0 0.0069229033
C  C103  1  0.24490000  0.43400000  0.78460000  1.0 0.0069229033
C  C104  1  0.75510000  0.93400000  0.71540000  1.0 0.0069229033
S  S1  1  0.64350000  0.10530000  0.30410000  1.0 0.0287468674
S  S2  1  0.35650000  0.60530000  0.19590000  1.0 0.0200147399
S  S3  1  0.35650000  0.89470000  0.69590000  1.0 0.0287468674
S  S4  1  0.64350000  0.39470000  0.80410000  1.0 0.0287468674
S  S5  1  0.75500000  0.44310000  0.21270000  1.0 -0.0833449528
S  S6  1  0.24500000  0.94310000  0.28730000  1.0 -0.0833449528
S  S7  1  0.24500000  0.55690000  0.78730000  1.0 -0.0833449528
S  S8  1  0.75500000  0.05690000  0.71270000  1.0 -0.0833449528
S  S9  1  0.62310000  0.07820000  0.32760000  1.0 -0.0038053931
S  S10  1  0.37690000  0.57820000  0.17240000  1.0 0.0022283749
S  S11  1  0.37690000  0.92180000  0.67240000  1.0 0.0022283749
S  S12  1  0.62310000  0.42180000  0.82760000  1.0 -0.0038053931
S  S13  1  0.80960000  0.46100000  0.25060000  1.0 -0.0833449528
S  S14  1  0.19040000  0.96100000  0.24940000  1.0 -0.0876200634
S  S15  1  0.19040000  0.53900000  0.74940000  1.0 -0.0833449528
S  S16  1  0.80960000  0.03900000  0.75060000  1.0 -0.0833449528
S  S17  1  0.81890000  0.47050000  0.21390000  1.0 -0.0833449528
S  S18  1  0.18110000  0.97050000  0.28610000  1.0 -0.0833449528
S  S19  1  0.18110000  0.52950000  0.78610000  1.0 -0.0833449528
S  S20  1  0.81890000  0.02950000  0.71390000  1.0 -0.0833449528
N  N1  1  0.56830000  0.78290000  0.18130000  1.0 -0.2348483938
N  N2  1  0.43170000  0.28290000  0.31870000  1.0 -0.2348483938
N  N3  1  0.43170000  0.21710000  0.81870000  1.0 -0.2348483938
N  N4  1  0.56830000  0.71710000  0.68130000  1.0 -0.2348483938
N  N5  1  0.27060000  0.76020000  0.99740000  1.0 -0.1912704307
N  N6  1  0.72940000  0.26020000  0.50260000  1.0 -0.1912704307
N  N7  1  0.72940000  0.23980000  0.00260000  1.0 -0.1912704307
N  N8  1  0.27060000  0.73980000  0.49740000  1.0 -0.1912704307
N  N9  1  0.17390000  0.77410000  0.96210000  1.0 -0.1912704307
N  N10  1  0.82610000  0.27410000  0.53790000  1.0 -0.1912704307
N  N11  1  0.82610000  0.22590000  0.03790000  1.0 -0.1912704307
N  N12  1  0.17390000  0.72590000  0.46210000  1.0 -0.1912704307
N  N13  1  0.85350000  0.71530000  0.80400000  1.0 -0.2204789557
N  N14  1  0.14650000  0.21530000  0.69600000  1.0 -0.2204789557
N  N15  1  0.14650000  0.28470000  0.19600000  1.0 -0.2204789557
N  N16  1  0.85350000  0.78470000  0.30400000  1.0 -0.2204789557
N  N17  1  0.76910000  0.84240000  0.16550000  1.0 -0.2204789557
N  N18  1  0.23090000  0.34240000  0.33450000  1.0 -0.2204789557
N  N19  1  0.23090000  0.15760000  0.83450000  1.0 -0.2204789557
N  N20  1  0.76910000  0.65760000  0.66550000  1.0 -0.2204789557
N  N21  1  0.98230000  0.97400000  0.02270000  1.0 -0.1596208315
N  N22  1  0.01770000  0.47400000  0.47730000  1.0 -0.1596208315
N  N23  1  0.01770000  0.02600000  0.97730000  1.0 -0.1596208315
N  N24  1  0.98230000  0.52600000  0.52270000  1.0 -0.1596208315
N  N25  1  0.65260000  0.72430000  0.31910000  1.0 -0.2204789557
N  N26  1  0.34740000  0.22430000  0.18090000  1.0 -0.2204789557
N  N27  1  0.34740000  0.27570000  0.68090000  1.0 -0.2204789557
N  N28  1  0.65260000  0.77570000  0.81910000  1.0 -0.2204789557
N  N29  1  0.50990000  0.51500000  0.47010000  1.0 -0.1820650089
N  N30  1  0.49010000  0.01500000  0.02990000  1.0 -0.1820650089
N  N31  1  0.49010000  0.48500000  0.52990000  1.0 -0.1820650089
N  N32  1  0.50990000  0.98500000  0.97010000  1.0 -0.1820650089
N  N33  1  0.68710000  0.91790000  0.27260000  1.0 -0.3310398373
N  N34  1  0.31290000  0.41790000  0.22740000  1.0 -0.3310398373
N  N35  1  0.31290000  0.08210000  0.72740000  1.0 -0.3310398373
N  N36  1  0.68710000  0.58210000  0.77260000  1.0 -0.3310398373
N  N37  1  0.73630000  0.64620000  0.21360000  1.0 -0.2418959539
N  N38  1  0.26370000  0.14620000  0.28640000  1.0 -0.2418959539
N  N39  1  0.26370000  0.35380000  0.78640000  1.0 -0.2418959539
N  N40  1  0.73630000  0.85380000  0.71360000  1.0 -0.2418959539
