# DDEC6 charges by PACMAN v1.1 (https://github.com/mtap-research/PACMAN-charge/)
data_WIXRUQ_FSR_pacman
_symmetry_space_group_name_H-M   'P 1'
_cell_length_a   9.13140000
_cell_length_b   12.74960000
_cell_length_c   14.74790000
_cell_angle_alpha   89.48000000
_cell_angle_beta   93.75100000
_cell_angle_gamma   107.58100000
_symmetry_Int_Tables_number   1
_chemical_formula_structural   Mn2Ga5P8H2O33
_chemical_formula_sum   'Mn4 Ga10 P16 H4 O66'
_cell_volume   1633.16777107
_cell_formula_units_Z   2
loop_
 _symmetry_equiv_pos_site_id
 _symmetry_equiv_pos_as_xyz
  1  'x, y, z'
loop_
 _atom_site_type_symbol
 _atom_site_label
 _atom_site_symmetry_multiplicity
 _atom_site_fract_x
 _atom_site_fract_y
 _atom_site_fract_z
 _atom_site_occupancy
 _atom_site_charge
Mn  Mn1  1  0.81969000  0.56468000  0.74321000  1.0 1.2227476296
Mn  Mn2  1  0.18031000  0.43532000  0.25679000  1.0 1.2227476296
Mn  Mn3  1  0.03684000  0.70062000  0.10687000  1.0 1.2407255825
Mn  Mn4  1  0.96316000  0.29938000  0.89313000  1.0 1.2508609948
Ga  Ga1  1  0.95703000  0.86671000  0.61016000  1.0 1.5050519165
Ga  Ga2  1  0.04297000  0.13329000  0.38984000  1.0 1.5050519165
Ga  Ga3  1  0.94281000  0.87204000  0.86010000  1.0 1.5211552637
Ga  Ga4  1  0.05719000  0.12796000  0.13990000  1.0 1.5211552637
Ga  Ga5  1  0.31459000  0.69277000  0.75489000  1.0 1.5296859599
Ga  Ga6  1  0.68541000  0.30723000  0.24511000  1.0 1.5296859599
Ga  Ga7  1  0.32004000  0.19009000  0.76576000  1.0 1.5296859599
Ga  Ga8  1  0.67996000  0.80991000  0.23424000  1.0 1.5211552637
Ga  Ga9  1  0.94357000  0.35525000  0.61994000  1.0 1.5680216011
Ga  Ga10  1  0.05643000  0.64475000  0.38006000  1.0 1.5680216011
P  P1  1  0.67311000  0.73553000  0.71729000  1.0 1.5526857433
P  P2  1  0.32689000  0.26447000  0.28271000  1.0 1.5526857433
P  P3  1  0.22023000  0.92536000  0.71688000  1.0 1.591745263
P  P4  1  0.77977000  0.07464000  0.28312000  1.0 1.591745263
P  P5  1  0.04257000  0.63062000  0.60084000  1.0 1.5822266397
P  P6  1  0.95743000  0.36938000  0.39916000  1.0 1.5822266397
P  P7  1  0.96288000  0.86590000  0.39481000  1.0 1.5611142573
P  P8  1  0.03712000  0.13410000  0.60519000  1.0 1.5680216011
P  P9  1  0.09210000  0.67313000  0.90696000  1.0 1.5611142573
P  P10  1  0.90790000  0.32687000  0.09304000  1.0 1.5611142573
P  P11  1  0.85680000  0.87908000  0.06277000  1.0 1.5611142573
P  P12  1  0.14320000  0.12092000  0.93723000  1.0 1.5680216011
P  P13  1  0.68608000  0.30720000  0.75511000  1.0 1.5680216011
P  P14  1  0.31392000  0.69280000  0.24489000  1.0 1.5611142573
P  P15  1  0.23305000  0.42446000  0.76981000  1.0 1.5680216011
P  P16  1  0.76695000  0.57554000  0.23019000  1.0 1.5680216011
H  H1  1  0.87560000  0.03980000  0.81810000  1.0 0.4387183395
H  H2  1  0.12440000  0.96020000  0.18190000  1.0 0.4387183395
H  H3  1  0.82280000  0.94050000  0.75110000  1.0 0.4278641996
H  H4  1  0.17720000  0.05950000  0.24890000  1.0 0.4278641996
O  O1  1  0.74420000  0.82010000  0.64470000  1.0 -0.7195315751
O  O2  1  0.25580000  0.17990000  0.35530000  1.0 -0.7195315751
O  O3  1  0.05140000  0.89350000  0.74620000  1.0 -0.7888173107
O  O4  1  0.94860000  0.10650000  0.25380000  1.0 -0.7888173107
O  O5  1  0.18940000  0.92360000  0.61240000  1.0 -0.7093347169
O  O6  1  0.81060000  0.07640000  0.38760000  1.0 -0.7010693222
O  O7  1  0.96900000  0.71610000  0.62800000  1.0 -0.7613075915
O  O8  1  0.03100000  0.28390000  0.37200000  1.0 -0.7613075915
O  O9  1  0.89380000  0.85430000  0.48590000  1.0 -0.7010693222
O  O10  1  0.10620000  0.14570000  0.51410000  1.0 -0.7010693222
O  O11  1  0.06230000  0.98330000  0.37910000  1.0 -0.7286615017
O  O12  1  0.93770000  0.01670000  0.62090000  1.0 -0.7286615017
O  O13  1  0.64620000  0.61750000  0.68340000  1.0 -0.6912116203
O  O14  1  0.35380000  0.38250000  0.31660000  1.0 -0.6912116203
O  O15  1  0.52340000  0.75270000  0.74110000  1.0 -0.6725718323
O  O16  1  0.47660000  0.24730000  0.25890000  1.0 -0.6725718323
O  O17  1  0.78670000  0.74860000  0.80100000  1.0 -0.7679291311
O  O18  1  0.21330000  0.25140000  0.19900000  1.0 -0.7679291311
O  O19  1  0.06500000  0.78460000  0.91190000  1.0 -0.7404800895
O  O20  1  0.93500000  0.21540000  0.08810000  1.0 -0.7404800895
O  O21  1  0.81650000  0.85160000  0.96290000  1.0 -0.7093347169
O  O22  1  0.18350000  0.14840000  0.03710000  1.0 -0.7093347169
O  O23  1  0.83450000  0.98230000  0.80140000  1.0 -0.5909964386
O  O24  1  0.16550000  0.01770000  0.19860000  1.0 -0.5909964386
O  O25  1  0.90120000  0.00180000  0.08120000  1.0 -0.7286615017
O  O26  1  0.09880000  0.99820000  0.91880000  1.0 -0.7286615017
O  O27  1  0.31730000  0.03590000  0.75480000  1.0 -0.7010693222
O  O28  1  0.68270000  0.96410000  0.24520000  1.0 -0.6912116203
O  O29  1  0.30160000  0.84260000  0.75010000  1.0 -0.6788978222
O  O30  1  0.69840000  0.15740000  0.24990000  1.0 -0.6788978222
O  O31  1  0.93950000  0.52180000  0.63980000  1.0 -0.7286615017
O  O32  1  0.06050000  0.47820000  0.36020000  1.0 -0.7286615017
O  O33  1  0.04540000  0.61660000  0.50010000  1.0 -0.6725718323
O  O34  1  0.95460000  0.38340000  0.49990000  1.0 -0.6725718323
O  O35  1  0.20900000  0.65490000  0.64110000  1.0 -0.7093347169
O  O36  1  0.79100000  0.34510000  0.35890000  1.0 -0.7093347169
O  O37  1  0.83020000  0.82870000  0.32420000  1.0 -0.7286615017
O  O38  1  0.16980000  0.17130000  0.67580000  1.0 -0.7286615017
O  O39  1  0.97510000  0.59130000  0.84720000  1.0 -0.7464570347
O  O40  1  0.02490000  0.40870000  0.15280000  1.0 -0.7464570347
O  O41  1  0.69360000  0.41800000  0.79510000  1.0 -0.7093347169
O  O42  1  0.30640000  0.58200000  0.20490000  1.0 -0.7093347169
O  O43  1  0.33100000  0.54320000  0.77280000  1.0 -0.6912116203
O  O44  1  0.66900000  0.45680000  0.22720000  1.0 -0.7010693222
O  O45  1  0.25550000  0.68910000  0.87710000  1.0 -0.7010693222
O  O46  1  0.74450000  0.31090000  0.12290000  1.0 -0.7010693222
O  O47  1  0.09280000  0.63030000  0.00550000  1.0 -0.6788978222
O  O48  1  0.90720000  0.36970000  0.99450000  1.0 -0.6788978222
O  O49  1  0.98980000  0.83590000  0.10000000  1.0 -0.7404800895
O  O50  1  0.01020000  0.16410000  0.90000000  1.0 -0.7404800895
O  O51  1  0.70950000  0.82130000  0.11130000  1.0 -0.7010693222
O  O52  1  0.29050000  0.17870000  0.88870000  1.0 -0.7010693222
O  O53  1  0.52540000  0.22770000  0.74420000  1.0 -0.6725718323
O  O54  1  0.47460000  0.77230000  0.25580000  1.0 -0.6725718323
O  O55  1  0.33860000  0.35140000  0.77230000  1.0 -0.7010693222
O  O56  1  0.66140000  0.64860000  0.22770000  1.0 -0.7010693222
O  O57  1  0.74700000  0.32280000  0.66030000  1.0 -0.7286615017
O  O58  1  0.25300000  0.67720000  0.33970000  1.0 -0.7286615017
O  O59  1  0.07010000  0.79480000  0.38850000  1.0 -0.7286615017
O  O60  1  0.92990000  0.20520000  0.61150000  1.0 -0.7195315751
O  O61  1  0.13530000  0.40260000  0.68050000  1.0 -0.7613075915
O  O62  1  0.86470000  0.59740000  0.31950000  1.0 -0.7613075915
O  O63  1  0.78680000  0.25340000  0.81450000  1.0 -0.7286615017
O  O64  1  0.21320000  0.74660000  0.18550000  1.0 -0.7286615017
O  O65  1  0.13800000  0.40270000  0.85330000  1.0 -0.7195315751
O  O66  1  0.86200000  0.59730000  0.14670000  1.0 -0.7286615017
