# DDEC6 charges by PACMAN v1.1 (https://github.com/mtap-research/PACMAN-charge/)
data_WIYMOG_ion_pacman
_symmetry_space_group_name_H-M   'P 1'
_cell_length_a   19.85300000
_cell_length_b   30.57340000
_cell_length_c   24.15120000
_cell_angle_alpha   90.00000000
_cell_angle_beta   109.41100000
_cell_angle_gamma   90.00000000
_symmetry_Int_Tables_number   1
_chemical_formula_structural   TbH24C31N5O14
_chemical_formula_sum   'Tb4 H96 C124 N20 O56'
_cell_volume   13825.90119314
_cell_formula_units_Z   4
loop_
 _symmetry_equiv_pos_site_id
 _symmetry_equiv_pos_as_xyz
  1  'x, y, z'
loop_
 _atom_site_type_symbol
 _atom_site_label
 _atom_site_symmetry_multiplicity
 _atom_site_fract_x
 _atom_site_fract_y
 _atom_site_fract_z
 _atom_site_occupancy
 _atom_site_charge
Tb  Tb1  1  0.97817000  0.49544000  0.91366000  1.0 2.0462796888
Tb  Tb2  1  0.02183000  0.99544000  0.58634000  1.0 2.0443122587
Tb  Tb3  1  0.02183000  0.50456000  0.08634000  1.0 2.0443122587
Tb  Tb4  1  0.97817000  0.00456000  0.41366000  1.0 2.0462796888
H  H1  1  0.79020000  0.49710000  0.56870000  1.0 0.1404970786
H  H2  1  0.20980000  0.99710000  0.93130000  1.0 0.0990368179
H  H3  1  0.20980000  0.50290000  0.43130000  1.0 0.0990368179
H  H4  1  0.79020000  0.00290000  0.06870000  1.0 0.1503404865
H  H5  1  0.90930000  0.51310000  0.61180000  1.0 0.1701129694
H  H6  1  0.09070000  0.01310000  0.88820000  1.0 0.1776671163
H  H7  1  0.09070000  0.48690000  0.38820000  1.0 0.1701129694
H  H8  1  0.90930000  0.98690000  0.11180000  1.0 0.1776671163
H  H9  1  0.95810000  0.52040000  0.71260000  1.0 0.1701129694
H  H10  1  0.04190000  0.02040000  0.78740000  1.0 0.1701129694
H  H11  1  0.04190000  0.47960000  0.28740000  1.0 0.1701129694
H  H12  1  0.95810000  0.97960000  0.21260000  1.0 0.1701129694
H  H13  1  0.76770000  0.48870000  0.72790000  1.0 0.1701129694
H  H14  1  0.23230000  0.98870000  0.77210000  1.0 0.1618757195
H  H15  1  0.23230000  0.51130000  0.27210000  1.0 0.1618757195
H  H16  1  0.76770000  0.01130000  0.22790000  1.0 0.1701129694
H  H17  1  0.68740000  0.45530000  0.58380000  1.0 0.1701129694
H  H18  1  0.31260000  0.95530000  0.91620000  1.0 0.1701129694
H  H19  1  0.31260000  0.54470000  0.41620000  1.0 0.1701129694
H  H20  1  0.68740000  0.04470000  0.08380000  1.0 0.1701129694
H  H21  1  0.67490000  0.46080000  0.64500000  1.0 0.1701129694
H  H22  1  0.32510000  0.96080000  0.85500000  1.0 0.1618757195
H  H23  1  0.32510000  0.53920000  0.35500000  1.0 0.1618757195
H  H24  1  0.67490000  0.03920000  0.14500000  1.0 0.1701129694
H  H25  1  0.22350000  0.29940000  0.99140000  1.0 0.1503404865
H  H26  1  0.77650000  0.79940000  0.50860000  1.0 0.1618757195
H  H27  1  0.77650000  0.70060000  0.00860000  1.0 0.1618757195
H  H28  1  0.22350000  0.20060000  0.49140000  1.0 0.1503404865
H  H29  1  0.24620000  0.32160000  0.08820000  1.0 0.1293606877
H  H30  1  0.75380000  0.82160000  0.41180000  1.0 0.1404970786
H  H31  1  0.75380000  0.67840000  0.91180000  1.0 0.1404970786
H  H32  1  0.24620000  0.17840000  0.58820000  1.0 0.1293606877
H  H33  1  0.18760000  0.38180000  0.10930000  1.0 0.1503404865
H  H34  1  0.81240000  0.88180000  0.39070000  1.0 0.1618757195
H  H35  1  0.81240000  0.61820000  0.89070000  1.0 0.1618757195
H  H36  1  0.18760000  0.11820000  0.60930000  1.0 0.1503404865
H  H37  1  0.09330000  0.40320000  0.93600000  1.0 0.1618757195
H  H38  1  0.90670000  0.90320000  0.56400000  1.0 0.1618757195
H  H39  1  0.90670000  0.59680000  0.06400000  1.0 0.1618757195
H  H40  1  0.09330000  0.09680000  0.43600000  1.0 0.1618757195
H  H41  1  0.18330000  0.32080000  0.88750000  1.0 0.1404970786
H  H42  1  0.81670000  0.82080000  0.61250000  1.0 0.1404970786
H  H43  1  0.81670000  0.67920000  0.11250000  1.0 0.1404970786
H  H44  1  0.18330000  0.17920000  0.38750000  1.0 0.1404970786
H  H45  1  0.13720000  0.36390000  0.86740000  1.0 0.1404970786
H  H46  1  0.86280000  0.86390000  0.63260000  1.0 0.1404970786
H  H47  1  0.86280000  0.63610000  0.13260000  1.0 0.1404970786
H  H48  1  0.13720000  0.13610000  0.36740000  1.0 0.1404970786
H  H49  1  0.04990000  0.32550000  0.78070000  1.0 0.111827363
H  H50  1  0.95010000  0.82550000  0.71930000  1.0 0.111827363
H  H51  1  0.95010000  0.67450000  0.21930000  1.0 0.111827363
H  H52  1  0.04990000  0.17450000  0.28070000  1.0 0.111827363
H  H53  1  0.10210000  0.28500000  0.79880000  1.0 0.111827363
H  H54  1  0.89790000  0.78500000  0.70120000  1.0 0.111827363
H  H55  1  0.89790000  0.71500000  0.20120000  1.0 0.111827363
H  H56  1  0.10210000  0.21500000  0.29880000  1.0 0.111827363
H  H57  1  0.00600000  0.24200000  0.80470000  1.0 0.121115389
H  H58  1  0.99400000  0.74200000  0.69530000  1.0 0.121115389
H  H59  1  0.99400000  0.75800000  0.19530000  1.0 0.121115389
H  H60  1  0.00600000  0.25800000  0.30470000  1.0 0.1293606877
H  H61  1  0.95460000  0.28260000  0.78190000  1.0 0.121115389
H  H62  1  0.04540000  0.78260000  0.71810000  1.0 0.121115389
H  H63  1  0.04540000  0.71740000  0.21810000  1.0 0.121115389
H  H64  1  0.95460000  0.21740000  0.28190000  1.0 0.121115389
H  H65  1  0.75180000  0.29810000  0.00610000  1.0 0.1404970786
H  H66  1  0.24820000  0.79810000  0.49390000  1.0 0.1404970786
H  H67  1  0.24820000  0.70190000  0.99390000  1.0 0.1404970786
H  H68  1  0.75180000  0.20190000  0.50610000  1.0 0.1404970786
H  H69  1  0.73850000  0.33010000  0.91530000  1.0 0.1404970786
H  H70  1  0.26150000  0.83010000  0.58470000  1.0 0.1293606877
H  H71  1  0.26150000  0.66990000  0.08470000  1.0 0.1293606877
H  H72  1  0.73850000  0.16990000  0.41530000  1.0 0.1293606877
H  H73  1  0.81080000  0.38830000  0.90880000  1.0 0.1503404865
H  H74  1  0.18920000  0.88830000  0.59120000  1.0 0.1503404865
H  H75  1  0.18920000  0.61170000  0.09120000  1.0 0.1503404865
H  H76  1  0.81080000  0.11170000  0.40880000  1.0 0.1503404865
H  H77  1  0.91150000  0.38190000  0.08340000  1.0 0.1618757195
H  H78  1  0.08850000  0.88190000  0.41660000  1.0 0.1618757195
H  H79  1  0.08850000  0.61810000  0.91660000  1.0 0.1618757195
H  H80  1  0.91150000  0.11810000  0.58340000  1.0 0.1618757195
H  H81  1  0.80110000  0.30040000  0.11120000  1.0 0.1503404865
H  H82  1  0.19890000  0.80040000  0.38880000  1.0 0.1503404865
H  H83  1  0.19890000  0.69960000  0.88880000  1.0 0.1503404865
H  H84  1  0.80110000  0.19960000  0.61120000  1.0 0.1503404865
H  H85  1  0.84570000  0.34220000  0.14150000  1.0 0.1618757195
H  H86  1  0.15430000  0.84220000  0.35850000  1.0 0.1618757195
H  H87  1  0.15430000  0.65780000  0.85850000  1.0 0.1618757195
H  H88  1  0.84570000  0.15780000  0.64150000  1.0 0.1618757195
H  H89  1  0.92530000  0.20180000  0.72120000  1.0 0.1503404865
H  H90  1  0.07470000  0.70180000  0.77880000  1.0 0.1503404865
H  H91  1  0.07470000  0.79820000  0.27880000  1.0 0.1503404865
H  H92  1  0.92530000  0.29820000  0.22120000  1.0 0.1503404865
H  H93  1  0.87900000  0.24350000  0.69360000  1.0 0.1503404865
H  H94  1  0.12100000  0.74350000  0.80640000  1.0 0.1503404865
H  H95  1  0.12100000  0.75650000  0.30640000  1.0 0.1503404865
H  H96  1  0.87900000  0.25650000  0.19360000  1.0 0.1503404865
C  C1  1  0.76720000  0.49010000  0.64360000  1.0 0.1404970786
C  C2  1  0.23280000  0.99010000  0.85640000  1.0 0.1293606877
C  C3  1  0.23280000  0.50990000  0.35640000  1.0 0.1293606877
C  C4  1  0.76720000  0.00990000  0.14360000  1.0 0.1404970786
C  C5  1  0.80990000  0.49850000  0.60980000  1.0 -0.0717303706
C  C6  1  0.19010000  0.99850000  0.89020000  1.0 -0.0606295173
C  C7  1  0.19010000  0.50150000  0.39020000  1.0 -0.0717303706
C  C8  1  0.80990000  0.00150000  0.10980000  1.0 -0.0717303706
C  C9  1  0.88060000  0.50870000  0.63540000  1.0 -0.0606295173
C  C10  1  0.11940000  0.00870000  0.86460000  1.0 -0.0780651416
C  C11  1  0.11940000  0.49130000  0.36460000  1.0 -0.0717303706
C  C12  1  0.88060000  0.99130000  0.13540000  1.0 -0.0717303706
C  C13  1  0.90980000  0.51270000  0.69540000  1.0 -0.0606295173
C  C14  1  0.09020000  0.01270000  0.80460000  1.0 -0.0780651416
C  C15  1  0.09020000  0.48730000  0.30460000  1.0 -0.0780651416
C  C16  1  0.90980000  0.98730000  0.19540000  1.0 -0.0606295173
C  C17  1  0.86790000  0.50520000  0.73070000  1.0 0.0287488015
C  C18  1  0.13210000  0.00520000  0.76930000  1.0 0.0229808111
C  C19  1  0.13210000  0.49480000  0.26930000  1.0 0.0287488015
C  C20  1  0.86790000  0.99480000  0.23070000  1.0 0.0287488015
C  C21  1  0.79640000  0.49390000  0.70440000  1.0 -0.0989363238
C  C22  1  0.20360000  0.99390000  0.79560000  1.0 -0.1196455126
C  C23  1  0.20360000  0.50610000  0.29560000  1.0 -0.1196455126
C  C24  1  0.79640000  0.00610000  0.20440000  1.0 -0.0989363238
C  C25  1  0.89910000  0.50650000  0.79540000  1.0 0.5759523711
C  C26  1  0.10090000  0.00650000  0.70460000  1.0 0.5698347888
C  C27  1  0.10090000  0.49350000  0.20460000  1.0 0.5698347888
C  C28  1  0.89910000  0.99350000  0.29540000  1.0 0.5759523711
C  C29  1  0.69080000  0.47590000  0.61580000  1.0 -0.1708104447
C  C30  1  0.30920000  0.97590000  0.88420000  1.0 -0.1806070977
C  C31  1  0.30920000  0.52410000  0.38420000  1.0 -0.1708104447
C  C32  1  0.69080000  0.02410000  0.11580000  1.0 -0.1708104447
C  C33  1  0.56850000  0.49970000  0.55500000  1.0 0.1293606877
C  C34  1  0.43150000  0.99970000  0.94500000  1.0 0.1293606877
C  C35  1  0.43150000  0.50030000  0.44500000  1.0 0.121115389
C  C36  1  0.56850000  0.00030000  0.05500000  1.0 0.1293606877
C  C37  1  0.52140000  0.53340000  0.52560000  1.0 0.0601493451
C  C38  1  0.47860000  0.03340000  0.97440000  1.0 0.0601493451
C  C39  1  0.47860000  0.46660000  0.47440000  1.0 0.0601493451
C  C40  1  0.52140000  0.96660000  0.02560000  1.0 0.0601493451
C  C41  1  0.55840000  0.48390000  0.50510000  1.0 -0.0717303706
C  C42  1  0.44160000  0.98390000  0.99490000  1.0 -0.0780651416
C  C43  1  0.44160000  0.51610000  0.49490000  1.0 -0.0717303706
C  C44  1  0.55840000  0.01610000  0.00510000  1.0 -0.0717303706
C  C45  1  0.15620000  0.34920000  0.95430000  1.0 0.1503404865
C  C46  1  0.84380000  0.84920000  0.54570000  1.0 0.1503404865
C  C47  1  0.84380000  0.65080000  0.04570000  1.0 0.1503404865
C  C48  1  0.15620000  0.15080000  0.45430000  1.0 0.1503404865
C  C49  1  0.20150000  0.32460000  0.99960000  1.0 -0.1420332067
C  C50  1  0.79850000  0.82460000  0.50040000  1.0 -0.1114078709
C  C51  1  0.79850000  0.67540000  0.00040000  1.0 -0.1114078709
C  C52  1  0.20150000  0.17540000  0.49960000  1.0 -0.1420332067
C  C53  1  0.21420000  0.33760000  0.05740000  1.0 -0.0717303706
C  C54  1  0.78580000  0.83760000  0.44260000  1.0 -0.0435558134
C  C55  1  0.78580000  0.66240000  0.94260000  1.0 -0.0460412377
C  C56  1  0.21420000  0.16240000  0.55740000  1.0 -0.0717303706
C  C57  1  0.18020000  0.37400000  0.07010000  1.0 -0.0989363238
C  C58  1  0.81980000  0.87400000  0.42990000  1.0 -0.0780651416
C  C59  1  0.81980000  0.62600000  0.92990000  1.0 -0.0780651416
C  C60  1  0.18020000  0.12600000  0.57010000  1.0 -0.0989363238
C  C61  1  0.13550000  0.39890000  0.02470000  1.0 0.035032162
C  C62  1  0.86450000  0.89890000  0.47530000  1.0 0.0287488015
C  C63  1  0.86450000  0.60110000  0.97530000  1.0 0.0287488015
C  C64  1  0.13550000  0.10110000  0.52470000  1.0 0.0287488015
C  C65  1  0.12360000  0.38640000  0.96680000  1.0 -0.1292434251
C  C66  1  0.87640000  0.88640000  0.53320000  1.0 -0.1292434251
C  C67  1  0.87640000  0.61360000  0.03320000  1.0 -0.1292434251
C  C68  1  0.12360000  0.11360000  0.46680000  1.0 -0.1292434251
C  C69  1  0.09850000  0.43860000  0.03910000  1.0 0.6425453029
C  C70  1  0.90150000  0.93860000  0.46090000  1.0 0.6477308076
C  C71  1  0.90150000  0.56140000  0.96090000  1.0 0.6477308076
C  C72  1  0.09850000  0.06140000  0.53910000  1.0 0.6425453029
C  C73  1  0.14230000  0.33710000  0.89080000  1.0 -0.2008657523
C  C74  1  0.85770000  0.83710000  0.60920000  1.0 -0.2008657523
C  C75  1  0.85770000  0.66290000  0.10920000  1.0 -0.2008657523
C  C76  1  0.14230000  0.16290000  0.39080000  1.0 -0.2008657523
C  C77  1  0.05980000  0.29850000  0.80390000  1.0 -0.1196455126
C  C78  1  0.94020000  0.79850000  0.69610000  1.0 -0.1196455126
C  C79  1  0.94020000  0.70150000  0.19610000  1.0 -0.1196455126
C  C80  1  0.05980000  0.20150000  0.30390000  1.0 -0.1196455126
C  C81  1  0.99800000  0.26830000  0.78000000  1.0 -0.2708182358
C  C82  1  0.00200000  0.76830000  0.72000000  1.0 -0.2708182358
C  C83  1  0.00200000  0.73170000  0.22000000  1.0 -0.2708182358
C  C84  1  0.99800000  0.23170000  0.28000000  1.0 -0.2708182358
C  C85  1  0.83350000  0.33770000  0.05340000  1.0 0.121115389
C  C86  1  0.16650000  0.83770000  0.44660000  1.0 0.121115389
C  C87  1  0.16650000  0.66230000  0.94660000  1.0 0.121115389
C  C88  1  0.83350000  0.16230000  0.55340000  1.0 0.121115389
C  C89  1  0.78120000  0.32150000  0.00340000  1.0 -0.1196455126
C  C90  1  0.21880000  0.82150000  0.49660000  1.0 -0.1292434251
C  C91  1  0.21880000  0.67850000  0.99660000  1.0 -0.1196455126
C  C92  1  0.78120000  0.17850000  0.50340000  1.0 -0.1196455126
C  C93  1  0.77330000  0.34070000  0.94940000  1.0 -0.0717303706
C  C94  1  0.22670000  0.84070000  0.55060000  1.0 -0.0780651416
C  C95  1  0.22670000  0.65930000  0.05060000  1.0 -0.0780651416
C  C96  1  0.77330000  0.15930000  0.44940000  1.0 -0.0717303706
C  C97  1  0.81650000  0.37550000  0.94550000  1.0 -0.0717303706
C  C98  1  0.18350000  0.87550000  0.55450000  1.0 -0.0717303706
C  C99  1  0.18350000  0.62450000  0.05450000  1.0 -0.0717303706
C  C100  1  0.81650000  0.12450000  0.44550000  1.0 -0.0717303706
C  C101  1  0.86780000  0.39120000  0.99540000  1.0 0.0014237538
C  C102  1  0.13220000  0.89120000  0.50460000  1.0 0.0014237538
C  C103  1  0.13220000  0.60880000  0.00460000  1.0 0.0014237538
C  C104  1  0.86780000  0.10880000  0.49540000  1.0 0.0014237538
C  C105  1  0.87610000  0.37160000  0.04940000  1.0 -0.1292434251
C  C106  1  0.12390000  0.87160000  0.45060000  1.0 -0.1292434251
C  C107  1  0.12390000  0.62840000  0.95060000  1.0 -0.1292434251
C  C108  1  0.87610000  0.12840000  0.54940000  1.0 -0.1292434251
C  C109  1  0.91120000  0.43120000  0.99360000  1.0 0.6477308076
C  C110  1  0.08880000  0.93120000  0.50640000  1.0 0.6477308076
C  C111  1  0.08880000  0.56880000  0.00640000  1.0 0.6477308076
C  C112  1  0.91120000  0.06880000  0.49360000  1.0 0.6477308076
C  C113  1  0.84260000  0.31850000  0.11330000  1.0 -0.1891937056
C  C114  1  0.15740000  0.81850000  0.38670000  1.0 -0.1891937056
C  C115  1  0.15740000  0.68150000  0.88670000  1.0 -0.1891937056
C  C116  1  0.84260000  0.18150000  0.61330000  1.0 -0.1891937056
C  C117  1  0.92090000  0.22640000  0.69420000  1.0 -0.2379722872
C  C118  1  0.07910000  0.72640000  0.80580000  1.0 -0.2314968952
C  C119  1  0.07910000  0.77360000  0.30580000  1.0 -0.2314968952
C  C120  1  0.92090000  0.27360000  0.19420000  1.0 -0.2379722872
C  C121  1  0.98670000  0.25480000  0.71660000  1.0 0.121115389
C  C122  1  0.01330000  0.75480000  0.78340000  1.0 0.111827363
C  C123  1  0.01330000  0.74520000  0.28340000  1.0 0.111827363
C  C124  1  0.98670000  0.24520000  0.21660000  1.0 0.121115389
N  N1  1  0.64300000  0.51460000  0.59190000  1.0 -0.1708104447
N  N2  1  0.35700000  0.01460000  0.90810000  1.0 -0.2008657523
N  N3  1  0.35700000  0.48540000  0.40810000  1.0 -0.2178959646
N  N4  1  0.64300000  0.98540000  0.09190000  1.0 -0.1806070977
N  N5  1  0.07630000  0.31000000  0.86670000  1.0 -0.0942341113
N  N6  1  0.92370000  0.81000000  0.63330000  1.0 -0.0989363238
N  N7  1  0.92370000  0.69000000  0.13330000  1.0 -0.0989363238
N  N8  1  0.07630000  0.19000000  0.36670000  1.0 -0.0989363238
N  N9  1  0.90960000  0.29110000  0.13370000  1.0 -0.1589703807
N  N10  1  0.09040000  0.79110000  0.36630000  1.0 -0.1489910432
N  N11  1  0.09040000  0.70890000  0.86630000  1.0 -0.1589703807
N  N12  1  0.90960000  0.20890000  0.63370000  1.0 -0.1489910432
N  N13  1  0.78200000  0.41290000  0.36840000  1.0 1.1270901165
N  N14  1  0.21800000  0.91290000  0.13160000  1.0 0.7584579787
N  N15  1  0.21800000  0.58710000  0.63160000  1.0 0.6872496805
N  N16  1  0.78200000  0.08710000  0.86840000  1.0 1.0463909111
N  N17  1  0.60380000  0.79610000  0.26890000  1.0 0.8027291796
N  N18  1  0.39620000  0.29610000  0.23110000  1.0 0.7516519032
N  N19  1  0.39620000  0.20390000  0.73110000  1.0 0.7516519032
N  N20  1  0.60380000  0.70390000  0.76890000  1.0 0.8027291796
O  O1  1  0.08450000  0.49150000  0.88380000  1.0 -0.2492718894
O  O2  1  0.91550000  0.99150000  0.61620000  1.0 -0.2492718894
O  O3  1  0.91550000  0.50850000  0.11620000  1.0 -0.2492718894
O  O4  1  0.08450000  0.00850000  0.38380000  1.0 -0.2577990987
O  O5  1  0.98760000  0.42435000  0.87070000  1.0 -0.3716852664
O  O6  1  0.01240000  0.92435000  0.62930000  1.0 -0.3716852664
O  O7  1  0.01240000  0.57565000  0.12930000  1.0 -0.3781372108
O  O8  1  0.98760000  0.07565000  0.37070000  1.0 -0.3716852664
O  O9  1  0.95580000  0.52790000  0.81830000  1.0 -0.5483846805
O  O10  1  0.04420000  0.02790000  0.68170000  1.0 -0.5483846805
O  O11  1  0.04420000  0.47210000  0.18170000  1.0 -0.5483846805
O  O12  1  0.95580000  0.97210000  0.31830000  1.0 -0.5483846805
O  O13  1  0.87110000  0.48438000  0.82610000  1.0 -0.5483846805
O  O14  1  0.12890000  0.98438000  0.67390000  1.0 -0.5483846805
O  O15  1  0.12890000  0.51562000  0.17390000  1.0 -0.5483846805
O  O16  1  0.87110000  0.01562000  0.32610000  1.0 -0.5447664657
O  O17  1  0.06020000  0.46221000  0.99640000  1.0 -0.6618334451
O  O18  1  0.93980000  0.96221000  0.50360000  1.0 -0.6618334451
O  O19  1  0.93980000  0.53779000  0.00360000  1.0 -0.6618334451
O  O20  1  0.06020000  0.03779000  0.49640000  1.0 -0.6618334451
O  O21  1  0.89260000  0.55270000  0.90940000  1.0 -0.5235088863
O  O22  1  0.10740000  0.05270000  0.59060000  1.0 -0.5272701183
O  O23  1  0.10740000  0.44730000  0.09060000  1.0 -0.5272701183
O  O24  1  0.89260000  0.94730000  0.40940000  1.0 -0.5272701183
O  O25  1  0.90690000  0.44680000  0.94500000  1.0 -0.5864730873
O  O26  1  0.09310000  0.94680000  0.55500000  1.0 -0.5846913555
O  O27  1  0.09310000  0.55320000  0.05500000  1.0 -0.5864730873
O  O28  1  0.90690000  0.05320000  0.44500000  1.0 -0.5846913555
O  O29  1  0.05110000  0.55314000  0.95610000  1.0 -0.6270876923
O  O30  1  0.94890000  0.05314000  0.54390000  1.0 -0.6235328414
O  O31  1  0.94890000  0.44686000  0.04390000  1.0 -0.6235328414
O  O32  1  0.05110000  0.94686000  0.45610000  1.0 -0.6270876923
O  O33  1  0.77810000  0.38720000  0.40510000  1.0 -0.6362880864
O  O34  1  0.73630000  0.41420000  0.32190000  1.0 -0.7256524959
O  O35  1  0.83700000  0.43310000  0.38110000  1.0 -0.7026675143
O  O36  1  0.22190000  0.88720000  0.09490000  1.0 -0.6490338841
O  O37  1  0.26370000  0.91420000  0.17810000  1.0 -1.02209268
O  O38  1  0.16300000  0.93310000  0.11890000  1.0 -0.2379722872
O  O39  1  0.22190000  0.61280000  0.59490000  1.0 -0.3381761112
O  O40  1  0.26370000  0.58580000  0.67810000  1.0 -0.6830010214
O  O41  1  0.16300000  0.56690000  0.61890000  1.0 -0.6618334451
O  O42  1  0.77810000  0.11280000  0.90510000  1.0 -0.5235088863
O  O43  1  0.73630000  0.08580000  0.82190000  1.0 -1.0745368996
O  O44  1  0.83700000  0.06690000  0.88110000  1.0 -0.6001717248
O  O45  1  0.54160000  0.80410000  0.26110000  1.0 -0.4102172055
O  O46  1  0.62490000  0.79010000  0.22650000  1.0 -0.3032095381
O  O47  1  0.64750000  0.79130000  0.31830000  1.0 -0.3381761112
O  O48  1  0.45840000  0.30410000  0.23890000  1.0 -0.2925059297
O  O49  1  0.37510000  0.29010000  0.27350000  1.0 -0.3574279943
O  O50  1  0.35250000  0.29130000  0.18170000  1.0 -0.3103343644
O  O51  1  0.45840000  0.19590000  0.73890000  1.0 -0.3781372108
O  O52  1  0.37510000  0.20990000  0.77350000  1.0 -0.2379722872
O  O53  1  0.35250000  0.20870000  0.68170000  1.0 -0.2379722872
O  O54  1  0.54160000  0.69590000  0.76110000  1.0 -0.4102172055
O  O55  1  0.62490000  0.70990000  0.72650000  1.0 -0.3032095381
O  O56  1  0.64750000  0.70870000  0.81830000  1.0 -0.33341522
