# DDEC6 charges by PACMAN v1.1 (https://github.com/mtap-research/PACMAN-charge/)
data_WIZDEP_FSR_pacman
_symmetry_space_group_name_H-M   'P 1'
_cell_length_a   15.28430000
_cell_length_b   15.28430000
_cell_length_c   15.28430000
_cell_angle_alpha   118.13200000
_cell_angle_beta   118.13200000
_cell_angle_gamma   118.13200000
_symmetry_Int_Tables_number   1
_chemical_formula_structural   ZnH(CO)4
_chemical_formula_sum   'Zn6 H6 C24 O24'
_cell_volume   1254.30033349
_cell_formula_units_Z   6
loop_
 _symmetry_equiv_pos_site_id
 _symmetry_equiv_pos_as_xyz
  1  'x, y, z'
loop_
 _atom_site_type_symbol
 _atom_site_label
 _atom_site_symmetry_multiplicity
 _atom_site_fract_x
 _atom_site_fract_y
 _atom_site_fract_z
 _atom_site_occupancy
 _atom_site_charge
Zn  Zn1  1  0.36404000  0.94061000  0.67695000  1.0 0.9593298521
Zn  Zn2  1  0.94061000  0.67695000  0.36404000  1.0 0.9593298521
Zn  Zn3  1  0.67695000  0.36404000  0.94061000  1.0 0.9593298521
Zn  Zn4  1  0.63596000  0.05939000  0.32305000  1.0 0.9593298521
Zn  Zn5  1  0.05939000  0.32305000  0.63596000  1.0 0.9593298521
Zn  Zn6  1  0.32305000  0.63596000  0.05939000  1.0 0.9593298521
H  H1  1  0.68223000  0.11579000  0.14739000  1.0 0.1427015003
H  H2  1  0.11579000  0.14739000  0.68223000  1.0 0.1427015003
H  H3  1  0.14739000  0.68223000  0.11579000  1.0 0.1427015003
H  H4  1  0.31777000  0.88421000  0.85261000  1.0 0.1427015003
H  H5  1  0.88421000  0.85261000  0.31777000  1.0 0.1427015003
H  H6  1  0.85261000  0.31777000  0.88421000  1.0 0.1427015003
C  C1  1  0.73468000  0.29347000  0.12840000  1.0 0.5737332688
C  C2  1  0.29347000  0.12840000  0.73468000  1.0 0.5737332688
C  C3  1  0.12840000  0.73468000  0.29347000  1.0 0.5737332688
C  C4  1  0.26532000  0.70653000  0.87160000  1.0 0.5737332688
C  C5  1  0.70653000  0.87160000  0.26532000  1.0 0.5737332688
C  C6  1  0.87160000  0.26532000  0.70653000  1.0 0.5737332688
C  C7  1  0.86134000  0.39604000  0.31329000  1.0 -0.1874538078
C  C8  1  0.39604000  0.31329000  0.86134000  1.0 -0.1874538078
C  C9  1  0.31329000  0.86134000  0.39604000  1.0 -0.1874538078
C  C10  1  0.13866000  0.60396000  0.68671000  1.0 -0.1874538078
C  C11  1  0.60396000  0.68671000  0.13866000  1.0 -0.1874538078
C  C12  1  0.68671000  0.13866000  0.60396000  1.0 -0.1874538078
C  C13  1  0.05707000  0.62591000  0.52420000  1.0 0.2860600587
C  C14  1  0.62591000  0.52420000  0.05707000  1.0 0.2860600587
C  C15  1  0.52420000  0.05707000  0.62591000  1.0 0.2860600587
C  C16  1  0.94293000  0.37409000  0.47580000  1.0 0.2860600587
C  C17  1  0.37409000  0.47580000  0.94293000  1.0 0.2860600587
C  C18  1  0.47580000  0.94293000  0.37409000  1.0 0.2860600587
C  C19  1  0.81165000  0.27173000  0.29145000  1.0 -0.2310347571
C  C20  1  0.27173000  0.29145000  0.81165000  1.0 -0.2310347571
C  C21  1  0.29145000  0.81165000  0.27173000  1.0 -0.2310347571
C  C22  1  0.18835000  0.72827000  0.70855000  1.0 -0.2310347571
C  C23  1  0.72827000  0.70855000  0.18835000  1.0 -0.2310347571
C  C24  1  0.70855000  0.18835000  0.72827000  1.0 -0.2310347571
O  O1  1  0.60754000  0.11036000  0.95922000  1.0 -0.4822961056
O  O2  1  0.11036000  0.95922000  0.60754000  1.0 -0.4822961056
O  O3  1  0.95922000  0.60754000  0.11036000  1.0 -0.4822961056
O  O4  1  0.39246000  0.88964000  0.04078000  1.0 -0.4822961056
O  O5  1  0.88964000  0.04078000  0.39246000  1.0 -0.4822961056
O  O6  1  0.04078000  0.39246000  0.88964000  1.0 -0.4822961056
O  O7  1  0.71512000  0.36055000  0.11565000  1.0 -0.559967092
O  O8  1  0.36055000  0.11565000  0.71512000  1.0 -0.559967092
O  O9  1  0.11565000  0.71512000  0.36055000  1.0 -0.559967092
O  O10  1  0.28488000  0.63945000  0.88435000  1.0 -0.559967092
O  O11  1  0.63945000  0.88435000  0.28488000  1.0 -0.559967092
O  O12  1  0.88435000  0.28488000  0.63945000  1.0 -0.559967092
O  O13  1  0.11084000  0.74752000  0.54715000  1.0 -0.6095094099
O  O14  1  0.74752000  0.54715000  0.11084000  1.0 -0.6095094099
O  O15  1  0.54715000  0.11084000  0.74752000  1.0 -0.6095094099
O  O16  1  0.88916000  0.25248000  0.45285000  1.0 -0.6095094099
O  O17  1  0.25248000  0.45285000  0.88916000  1.0 -0.6095094099
O  O18  1  0.45285000  0.88916000  0.25248000  1.0 -0.6095094099
O  O19  1  0.33684000  0.76146000  0.55870000  1.0 0.1091499638
O  O20  1  0.76146000  0.55870000  0.33684000  1.0 0.1091499638
O  O21  1  0.55870000  0.33684000  0.76146000  1.0 0.1048691358
O  O22  1  0.66316000  0.23854000  0.44130000  1.0 0.1091499638
O  O23  1  0.23854000  0.44130000  0.66316000  1.0 0.1091499638
O  O24  1  0.44130000  0.66316000  0.23854000  1.0 0.1091499638
