# DDEC6 charges by PACMAN v1.1 (https://github.com/mtap-research/PACMAN-charge/)
data_WIZMAV02_FSR_pacman
_symmetry_space_group_name_H-M   'P 1'
_cell_length_a   18.93840000
_cell_length_b   18.93840000
_cell_length_c   18.93840000
_cell_angle_alpha   60.00000000
_cell_angle_beta   60.00000000
_cell_angle_gamma   60.00000000
_symmetry_Int_Tables_number   1
_chemical_formula_structural   Zr3H52(C33O10)2
_chemical_formula_sum   'Zr6 H104 C132 O40'
_cell_volume   4803.02511367
_cell_formula_units_Z   2
loop_
 _symmetry_equiv_pos_site_id
 _symmetry_equiv_pos_as_xyz
  1  'x, y, z'
loop_
 _atom_site_type_symbol
 _atom_site_label
 _atom_site_symmetry_multiplicity
 _atom_site_fract_x
 _atom_site_fract_y
 _atom_site_fract_z
 _atom_site_occupancy
 _atom_site_charge
Zr  Zr1  1  0.90788000  0.09212000  0.09212000  1.0 2.092345807
Zr  Zr2  1  0.09212000  0.90788000  0.90788000  1.0 2.092345807
Zr  Zr3  1  0.09212000  0.90788000  0.09212000  1.0 2.092345807
Zr  Zr4  1  0.90788000  0.09212000  0.90788000  1.0 2.092345807
Zr  Zr5  1  0.09212000  0.09212000  0.90788000  1.0 2.092345807
Zr  Zr6  1  0.90788000  0.90788000  0.09212000  1.0 2.092345807
H  H1  1  0.78973000  0.07009000  0.07009000  1.0 0.3371506028
H  H2  1  0.07009000  0.78973000  0.07009000  1.0 0.3371506028
H  H3  1  0.07009000  0.07009000  0.78973000  1.0 0.3371506028
H  H4  1  0.07009000  0.07009000  0.07009000  1.0 0.3371506028
H  H5  1  0.21027000  0.92991000  0.92991000  1.0 0.3371506028
H  H6  1  0.92991000  0.21027000  0.92991000  1.0 0.3371506028
H  H7  1  0.92991000  0.92991000  0.92991000  1.0 0.3371506028
H  H8  1  0.92991000  0.92991000  0.21027000  1.0 0.3371506028
H  H9  1  0.91580000  0.30480000  0.12320000  1.0 0.0529326464
H  H10  1  0.30480000  0.91580000  0.65620000  1.0 0.0529326464
H  H11  1  0.12320000  0.65620000  0.91580000  1.0 0.0529326464
H  H12  1  0.65620000  0.12320000  0.30480000  1.0 0.0529326464
H  H13  1  0.12320000  0.91580000  0.30480000  1.0 0.0529326464
H  H14  1  0.65620000  0.30480000  0.91580000  1.0 0.0529326464
H  H15  1  0.91580000  0.12320000  0.65620000  1.0 0.0529326464
H  H16  1  0.30480000  0.65620000  0.12320000  1.0 0.0529326464
H  H17  1  0.30480000  0.12320000  0.91580000  1.0 0.0529326464
H  H18  1  0.91580000  0.65620000  0.30480000  1.0 0.0529326464
H  H19  1  0.65620000  0.91580000  0.12320000  1.0 0.0529326464
H  H20  1  0.12320000  0.30480000  0.65620000  1.0 0.0529326464
H  H21  1  0.08420000  0.69520000  0.34380000  1.0 0.0529326464
H  H22  1  0.69520000  0.08420000  0.87680000  1.0 0.0529326464
H  H23  1  0.87680000  0.34380000  0.69520000  1.0 0.0529326464
H  H24  1  0.34380000  0.87680000  0.08420000  1.0 0.0529326464
H  H25  1  0.87680000  0.08420000  0.34380000  1.0 0.0529326464
H  H26  1  0.34380000  0.69520000  0.87680000  1.0 0.0529326464
H  H27  1  0.08420000  0.87680000  0.69520000  1.0 0.0529326464
H  H28  1  0.69520000  0.34380000  0.08420000  1.0 0.0529326464
H  H29  1  0.69520000  0.87680000  0.34380000  1.0 0.0529326464
H  H30  1  0.08420000  0.34380000  0.87680000  1.0 0.0529326464
H  H31  1  0.34380000  0.08420000  0.69520000  1.0 0.0529326464
H  H32  1  0.87680000  0.69520000  0.08420000  1.0 0.0529326464
H  H33  1  0.08420000  0.69520000  0.87680000  1.0 0.0529326464
H  H34  1  0.69520000  0.08420000  0.34380000  1.0 0.0529326464
H  H35  1  0.87680000  0.34380000  0.08420000  1.0 0.0529326464
H  H36  1  0.34380000  0.87680000  0.69520000  1.0 0.0529326464
H  H37  1  0.87680000  0.08420000  0.69520000  1.0 0.0529326464
H  H38  1  0.34380000  0.69520000  0.08420000  1.0 0.0529326464
H  H39  1  0.08420000  0.87680000  0.34380000  1.0 0.0529326464
H  H40  1  0.69520000  0.34380000  0.87680000  1.0 0.0529326464
H  H41  1  0.69520000  0.87680000  0.08420000  1.0 0.0529326464
H  H42  1  0.08420000  0.34380000  0.69520000  1.0 0.0529326464
H  H43  1  0.34380000  0.08420000  0.87680000  1.0 0.0529326464
H  H44  1  0.87680000  0.69520000  0.34380000  1.0 0.0529326464
H  H45  1  0.91580000  0.30480000  0.65620000  1.0 0.0529326464
H  H46  1  0.30480000  0.91580000  0.12320000  1.0 0.0529326464
H  H47  1  0.12320000  0.65620000  0.30480000  1.0 0.0529326464
H  H48  1  0.65620000  0.12320000  0.91580000  1.0 0.0529326464
H  H49  1  0.12320000  0.91580000  0.65620000  1.0 0.0529326464
H  H50  1  0.65620000  0.30480000  0.12320000  1.0 0.0529326464
H  H51  1  0.91580000  0.12320000  0.30480000  1.0 0.0529326464
H  H52  1  0.30480000  0.65620000  0.91580000  1.0 0.0529326464
H  H53  1  0.30480000  0.12320000  0.65620000  1.0 0.0529326464
H  H54  1  0.91580000  0.65620000  0.12320000  1.0 0.0529326464
H  H55  1  0.65620000  0.91580000  0.30480000  1.0 0.0529326464
H  H56  1  0.12320000  0.30480000  0.91580000  1.0 0.0529326464
H  H57  1  0.91630000  0.42930000  0.12230000  1.0 0.0529326464
H  H58  1  0.42930000  0.91630000  0.53210000  1.0 0.0529326464
H  H59  1  0.12230000  0.53210000  0.91630000  1.0 0.0529326464
H  H60  1  0.53210000  0.12230000  0.42930000  1.0 0.0529326464
H  H61  1  0.12230000  0.91630000  0.42930000  1.0 0.0529326464
H  H62  1  0.53210000  0.42930000  0.91630000  1.0 0.0529326464
H  H63  1  0.91630000  0.12230000  0.53210000  1.0 0.0529326464
H  H64  1  0.42930000  0.53210000  0.12230000  1.0 0.0529326464
H  H65  1  0.42930000  0.12230000  0.91630000  1.0 0.0529326464
H  H66  1  0.91630000  0.53210000  0.42930000  1.0 0.0529326464
H  H67  1  0.53210000  0.91630000  0.12230000  1.0 0.0529326464
H  H68  1  0.12230000  0.42930000  0.53210000  1.0 0.0529326464
H  H69  1  0.08370000  0.57070000  0.46790000  1.0 0.0529326464
H  H70  1  0.57070000  0.08370000  0.87770000  1.0 0.0529326464
H  H71  1  0.87770000  0.46790000  0.57070000  1.0 0.0529326464
H  H72  1  0.46790000  0.87770000  0.08370000  1.0 0.0529326464
H  H73  1  0.87770000  0.08370000  0.46790000  1.0 0.0529326464
H  H74  1  0.46790000  0.57070000  0.87770000  1.0 0.0529326464
H  H75  1  0.08370000  0.87770000  0.57070000  1.0 0.0529326464
H  H76  1  0.57070000  0.46790000  0.08370000  1.0 0.0529326464
H  H77  1  0.57070000  0.87770000  0.46790000  1.0 0.0529326464
H  H78  1  0.08370000  0.46790000  0.87770000  1.0 0.0529326464
H  H79  1  0.46790000  0.08370000  0.57070000  1.0 0.0529326464
H  H80  1  0.87770000  0.57070000  0.08370000  1.0 0.0529326464
H  H81  1  0.08370000  0.57070000  0.87770000  1.0 0.0529326464
H  H82  1  0.57070000  0.08370000  0.46790000  1.0 0.0529326464
H  H83  1  0.87770000  0.46790000  0.08370000  1.0 0.0529326464
H  H84  1  0.46790000  0.87770000  0.57070000  1.0 0.0529326464
H  H85  1  0.87770000  0.08370000  0.57070000  1.0 0.0529326464
H  H86  1  0.46790000  0.57070000  0.08370000  1.0 0.0529326464
H  H87  1  0.08370000  0.87770000  0.46790000  1.0 0.0529326464
H  H88  1  0.57070000  0.46790000  0.87770000  1.0 0.0529326464
H  H89  1  0.57070000  0.87770000  0.08370000  1.0 0.0529326464
H  H90  1  0.08370000  0.46790000  0.57070000  1.0 0.0529326464
H  H91  1  0.46790000  0.08370000  0.87770000  1.0 0.0529326464
H  H92  1  0.87770000  0.57070000  0.46790000  1.0 0.0529326464
H  H93  1  0.91630000  0.42930000  0.53210000  1.0 0.0529326464
H  H94  1  0.42930000  0.91630000  0.12230000  1.0 0.0529326464
H  H95  1  0.12230000  0.53210000  0.42930000  1.0 0.0529326464
H  H96  1  0.53210000  0.12230000  0.91630000  1.0 0.0529326464
H  H97  1  0.12230000  0.91630000  0.53210000  1.0 0.0529326464
H  H98  1  0.53210000  0.42930000  0.12230000  1.0 0.0529326464
H  H99  1  0.91630000  0.12230000  0.42930000  1.0 0.0529326464
H  H100  1  0.42930000  0.53210000  0.91630000  1.0 0.0529326464
H  H101  1  0.42930000  0.12230000  0.53210000  1.0 0.0529326464
H  H102  1  0.91630000  0.53210000  0.12230000  1.0 0.0529326464
H  H103  1  0.53210000  0.91630000  0.42930000  1.0 0.0529326464
H  H104  1  0.12230000  0.42930000  0.91630000  1.0 0.0529326464
C  C1  1  0.00000000  0.23434000  0.00000000  1.0 0.3994122252
C  C2  1  0.23434000  0.00000000  0.76566000  1.0 0.3994122252
C  C3  1  0.00000000  0.76566000  0.00000000  1.0 0.3994122252
C  C4  1  0.76566000  0.00000000  0.23434000  1.0 0.3994122252
C  C5  1  0.00000000  0.00000000  0.23434000  1.0 0.3994122252
C  C6  1  0.76566000  0.23434000  0.00000000  1.0 0.3994122252
C  C7  1  0.00000000  0.00000000  0.76566000  1.0 0.3994122252
C  C8  1  0.23434000  0.76566000  0.00000000  1.0 0.3994122252
C  C9  1  0.23434000  0.00000000  0.00000000  1.0 0.3994122252
C  C10  1  0.00000000  0.76566000  0.23434000  1.0 0.3994122252
C  C11  1  0.76566000  0.00000000  0.00000000  1.0 0.3994122252
C  C12  1  0.00000000  0.23434000  0.76566000  1.0 0.3994122252
C  C13  1  0.00000000  0.31330000  0.00000000  1.0 -0.0166036891
C  C14  1  0.31330000  0.00000000  0.68670000  1.0 -0.0166036891
C  C15  1  0.00000000  0.68670000  0.00000000  1.0 -0.0166036891
C  C16  1  0.68670000  0.00000000  0.31330000  1.0 -0.0166036891
C  C17  1  0.00000000  0.00000000  0.31330000  1.0 -0.0166036891
C  C18  1  0.68670000  0.31330000  0.00000000  1.0 -0.0166036891
C  C19  1  0.00000000  0.00000000  0.68670000  1.0 -0.0166036891
C  C20  1  0.31330000  0.68670000  0.00000000  1.0 -0.0166036891
C  C21  1  0.31330000  0.00000000  0.00000000  1.0 -0.0166036891
C  C22  1  0.00000000  0.68670000  0.31330000  1.0 -0.0166036891
C  C23  1  0.68670000  0.00000000  0.00000000  1.0 -0.0166036891
C  C24  1  0.00000000  0.31330000  0.68670000  1.0 -0.0166036891
C  C25  1  0.94987000  0.33771000  0.07333000  1.0 -0.0500857549
C  C26  1  0.33771000  0.94987000  0.63909000  1.0 -0.0500857549
C  C27  1  0.07333000  0.63909000  0.94987000  1.0 -0.0500857549
C  C28  1  0.63909000  0.07333000  0.33771000  1.0 -0.0500857549
C  C29  1  0.07333000  0.94987000  0.33771000  1.0 -0.0500857549
C  C30  1  0.63909000  0.33771000  0.94987000  1.0 -0.0500857549
C  C31  1  0.94987000  0.07333000  0.63909000  1.0 -0.0500857549
C  C32  1  0.33771000  0.63909000  0.07333000  1.0 -0.0500857549
C  C33  1  0.33771000  0.07333000  0.94987000  1.0 -0.0500857549
C  C34  1  0.94987000  0.63909000  0.33771000  1.0 -0.0500857549
C  C35  1  0.63909000  0.94987000  0.07333000  1.0 -0.0500857549
C  C36  1  0.07333000  0.33771000  0.63909000  1.0 -0.0500857549
C  C37  1  0.05013000  0.66229000  0.36091000  1.0 -0.0500857549
C  C38  1  0.66229000  0.05013000  0.92667000  1.0 -0.0500857549
C  C39  1  0.92667000  0.36091000  0.66229000  1.0 -0.0500857549
C  C40  1  0.36091000  0.92667000  0.05013000  1.0 -0.0500857549
C  C41  1  0.92667000  0.05013000  0.36091000  1.0 -0.0500857549
C  C42  1  0.36091000  0.66229000  0.92667000  1.0 -0.0500857549
C  C43  1  0.05013000  0.92667000  0.66229000  1.0 -0.0500857549
C  C44  1  0.66229000  0.36091000  0.05013000  1.0 -0.0500857549
C  C45  1  0.66229000  0.92667000  0.36091000  1.0 -0.0500857549
C  C46  1  0.05013000  0.36091000  0.92667000  1.0 -0.0500857549
C  C47  1  0.36091000  0.05013000  0.66229000  1.0 -0.0500857549
C  C48  1  0.92667000  0.66229000  0.05013000  1.0 -0.0500857549
C  C49  1  0.05013000  0.66229000  0.92667000  1.0 -0.0500857549
C  C50  1  0.66229000  0.05013000  0.36091000  1.0 -0.0500857549
C  C51  1  0.92667000  0.36091000  0.05013000  1.0 -0.0500857549
C  C52  1  0.36091000  0.92667000  0.66229000  1.0 -0.0500857549
C  C53  1  0.92667000  0.05013000  0.66229000  1.0 -0.0500857549
C  C54  1  0.36091000  0.66229000  0.05013000  1.0 -0.0500857549
C  C55  1  0.05013000  0.92667000  0.36091000  1.0 -0.0500857549
C  C56  1  0.66229000  0.36091000  0.92667000  1.0 -0.0500857549
C  C57  1  0.66229000  0.92667000  0.05013000  1.0 -0.0500857549
C  C58  1  0.05013000  0.36091000  0.66229000  1.0 -0.0500857549
C  C59  1  0.36091000  0.05013000  0.92667000  1.0 -0.0500857549
C  C60  1  0.92667000  0.66229000  0.36091000  1.0 -0.0500857549
C  C61  1  0.94987000  0.33771000  0.63909000  1.0 -0.0500857549
C  C62  1  0.33771000  0.94987000  0.07333000  1.0 -0.0500857549
C  C63  1  0.07333000  0.63909000  0.33771000  1.0 -0.0500857549
C  C64  1  0.63909000  0.07333000  0.94987000  1.0 -0.0500857549
C  C65  1  0.07333000  0.94987000  0.63909000  1.0 -0.0500857549
C  C66  1  0.63909000  0.33771000  0.07333000  1.0 -0.0500857549
C  C67  1  0.94987000  0.07333000  0.33771000  1.0 -0.0500857549
C  C68  1  0.33771000  0.63909000  0.94987000  1.0 -0.0500857549
C  C69  1  0.33771000  0.07333000  0.63909000  1.0 -0.0500857549
C  C70  1  0.94987000  0.63909000  0.07333000  1.0 -0.0500857549
C  C71  1  0.63909000  0.94987000  0.33771000  1.0 -0.0500857549
C  C72  1  0.07333000  0.33771000  0.94987000  1.0 -0.0500857549
C  C73  1  0.95044000  0.41200000  0.07256000  1.0 -0.0142144675
C  C74  1  0.41200000  0.95044000  0.56500000  1.0 -0.0142144675
C  C75  1  0.07256000  0.56500000  0.95044000  1.0 -0.0142144675
C  C76  1  0.56500000  0.07256000  0.41200000  1.0 -0.0166036891
C  C77  1  0.07256000  0.95044000  0.41200000  1.0 -0.0142144675
C  C78  1  0.56500000  0.41200000  0.95044000  1.0 -0.0142144675
C  C79  1  0.95044000  0.07256000  0.56500000  1.0 -0.0166036891
C  C80  1  0.41200000  0.56500000  0.07256000  1.0 -0.0142144675
C  C81  1  0.41200000  0.07256000  0.95044000  1.0 -0.0166036891
C  C82  1  0.95044000  0.56500000  0.41200000  1.0 -0.0142144675
C  C83  1  0.56500000  0.95044000  0.07256000  1.0 -0.0142144675
C  C84  1  0.07256000  0.41200000  0.56500000  1.0 -0.0142144675
C  C85  1  0.04956000  0.58800000  0.43500000  1.0 -0.0142144675
C  C86  1  0.58800000  0.04956000  0.92744000  1.0 -0.0166036891
C  C87  1  0.92744000  0.43500000  0.58800000  1.0 -0.0142144675
C  C88  1  0.43500000  0.92744000  0.04956000  1.0 -0.0166036891
C  C89  1  0.92744000  0.04956000  0.43500000  1.0 -0.0166036891
C  C90  1  0.43500000  0.58800000  0.92744000  1.0 -0.0166036891
C  C91  1  0.04956000  0.92744000  0.58800000  1.0 -0.0142144675
C  C92  1  0.58800000  0.43500000  0.04956000  1.0 -0.0142144675
C  C93  1  0.58800000  0.92744000  0.43500000  1.0 -0.0142144675
C  C94  1  0.04956000  0.43500000  0.92744000  1.0 -0.0166036891
C  C95  1  0.43500000  0.04956000  0.58800000  1.0 -0.0166036891
C  C96  1  0.92744000  0.58800000  0.04956000  1.0 -0.0142144675
C  C97  1  0.04956000  0.58800000  0.92744000  1.0 -0.0142144675
C  C98  1  0.58800000  0.04956000  0.43500000  1.0 -0.0142144675
C  C99  1  0.92744000  0.43500000  0.04956000  1.0 -0.0142144675
C  C100  1  0.43500000  0.92744000  0.58800000  1.0 -0.0142144675
C  C101  1  0.92744000  0.04956000  0.58800000  1.0 -0.0142144675
C  C102  1  0.43500000  0.58800000  0.04956000  1.0 -0.0166036891
C  C103  1  0.04956000  0.92744000  0.43500000  1.0 -0.0142144675
C  C104  1  0.58800000  0.43500000  0.92744000  1.0 -0.0142144675
C  C105  1  0.58800000  0.92744000  0.04956000  1.0 -0.0142144675
C  C106  1  0.04956000  0.43500000  0.58800000  1.0 -0.0142144675
C  C107  1  0.43500000  0.04956000  0.92744000  1.0 -0.0166036891
C  C108  1  0.92744000  0.58800000  0.43500000  1.0 -0.0142144675
C  C109  1  0.95044000  0.41200000  0.56500000  1.0 -0.0142144675
C  C110  1  0.41200000  0.95044000  0.07256000  1.0 -0.0142144675
C  C111  1  0.07256000  0.56500000  0.41200000  1.0 -0.0142144675
C  C112  1  0.56500000  0.07256000  0.95044000  1.0 -0.0166036891
C  C113  1  0.07256000  0.95044000  0.56500000  1.0 -0.0166036891
C  C114  1  0.56500000  0.41200000  0.07256000  1.0 -0.0142144675
C  C115  1  0.95044000  0.07256000  0.41200000  1.0 -0.0142144675
C  C116  1  0.41200000  0.56500000  0.95044000  1.0 -0.0142144675
C  C117  1  0.41200000  0.07256000  0.56500000  1.0 -0.0142144675
C  C118  1  0.95044000  0.56500000  0.07256000  1.0 -0.0142144675
C  C119  1  0.56500000  0.95044000  0.41200000  1.0 -0.0142144675
C  C120  1  0.07256000  0.41200000  0.95044000  1.0 -0.0166036891
C  C121  1  0.00000000  0.46066000  0.00000000  1.0 -0.0595755264
C  C122  1  0.46066000  0.00000000  0.53934000  1.0 -0.0595755264
C  C123  1  0.00000000  0.53934000  0.00000000  1.0 -0.0595755264
C  C124  1  0.53934000  0.00000000  0.46066000  1.0 -0.0595755264
C  C125  1  0.00000000  0.00000000  0.46066000  1.0 -0.0595755264
C  C126  1  0.53934000  0.46066000  0.00000000  1.0 -0.0595755264
C  C127  1  0.00000000  0.00000000  0.53934000  1.0 -0.0595755264
C  C128  1  0.46066000  0.53934000  0.00000000  1.0 -0.0595755264
C  C129  1  0.46066000  0.00000000  0.00000000  1.0 -0.0595755264
C  C130  1  0.00000000  0.53934000  0.46066000  1.0 -0.0595755264
C  C131  1  0.53934000  0.00000000  0.00000000  1.0 -0.0595755264
C  C132  1  0.00000000  0.46066000  0.53934000  1.0 -0.0595755264
O  O1  1  0.84406000  0.05198000  0.05198000  1.0 -0.3778319887
O  O2  1  0.05198000  0.84406000  0.05198000  1.0 -0.3778319887
O  O3  1  0.05198000  0.05198000  0.84406000  1.0 -0.3778319887
O  O4  1  0.05198000  0.05198000  0.05198000  1.0 -0.3778319887
O  O5  1  0.15594000  0.94802000  0.94802000  1.0 -0.3778319887
O  O6  1  0.94802000  0.15594000  0.94802000  1.0 -0.3778319887
O  O7  1  0.94802000  0.94802000  0.94802000  1.0 -0.3778319887
O  O8  1  0.94802000  0.94802000  0.15594000  1.0 -0.3778319887
O  O9  1  0.93974000  0.20502000  0.06026000  1.0 -0.6172605301
O  O10  1  0.20502000  0.93974000  0.79498000  1.0 -0.6172605301
O  O11  1  0.06026000  0.79498000  0.93974000  1.0 -0.6172605301
O  O12  1  0.79498000  0.06026000  0.20502000  1.0 -0.6172605301
O  O13  1  0.06026000  0.93974000  0.20502000  1.0 -0.6172605301
O  O14  1  0.79498000  0.20502000  0.93974000  1.0 -0.6172605301
O  O15  1  0.93974000  0.06026000  0.79498000  1.0 -0.6172605301
O  O16  1  0.20502000  0.79498000  0.06026000  1.0 -0.6172605301
O  O17  1  0.20502000  0.06026000  0.93974000  1.0 -0.6172605301
O  O18  1  0.93974000  0.79498000  0.20502000  1.0 -0.6172605301
O  O19  1  0.79498000  0.93974000  0.06026000  1.0 -0.6172605301
O  O20  1  0.06026000  0.20502000  0.79498000  1.0 -0.6172605301
O  O21  1  0.06026000  0.79498000  0.20502000  1.0 -0.6172605301
O  O22  1  0.79498000  0.06026000  0.93974000  1.0 -0.6172605301
O  O23  1  0.93974000  0.20502000  0.79498000  1.0 -0.6172605301
O  O24  1  0.20502000  0.93974000  0.06026000  1.0 -0.6172605301
O  O25  1  0.93974000  0.06026000  0.20502000  1.0 -0.6172605301
O  O26  1  0.20502000  0.79498000  0.93974000  1.0 -0.6172605301
O  O27  1  0.06026000  0.93974000  0.79498000  1.0 -0.6172605301
O  O28  1  0.79498000  0.20502000  0.06026000  1.0 -0.6172605301
O  O29  1  0.79498000  0.93974000  0.20502000  1.0 -0.6172605301
O  O30  1  0.06026000  0.20502000  0.93974000  1.0 -0.6172605301
O  O31  1  0.20502000  0.06026000  0.79498000  1.0 -0.6172605301
O  O32  1  0.93974000  0.79498000  0.06026000  1.0 -0.6172605301
O  O33  1  0.88291000  0.03903000  0.03903000  1.0 -0.4068551778
O  O34  1  0.03903000  0.88291000  0.03903000  1.0 -0.4068551778
O  O35  1  0.03903000  0.03903000  0.88291000  1.0 -0.4068551778
O  O36  1  0.03903000  0.03903000  0.03903000  1.0 -0.4068551778
O  O37  1  0.11709000  0.96097000  0.96097000  1.0 -0.4068551778
O  O38  1  0.96097000  0.11709000  0.96097000  1.0 -0.4068551778
O  O39  1  0.96097000  0.96097000  0.96097000  1.0 -0.4068551778
O  O40  1  0.96097000  0.96097000  0.11709000  1.0 -0.4068551778
