# DDEC6 charges by PACMAN v1.1 (https://github.com/mtap-research/PACMAN-charge/)
data_WOBHEB01_FSR_pacman
_symmetry_space_group_name_H-M   'P 1'
_cell_length_a   15.29200000
_cell_length_b   15.29200000
_cell_length_c   15.29200000
_cell_angle_alpha   117.93800000
_cell_angle_beta   117.93800000
_cell_angle_gamma   117.93800000
_symmetry_Int_Tables_number   1
_chemical_formula_structural   ZnH(CO)4
_chemical_formula_sum   'Zn6 H6 C24 O24'
_cell_volume   1317.74844164
_cell_formula_units_Z   6
loop_
 _symmetry_equiv_pos_site_id
 _symmetry_equiv_pos_as_xyz
  1  'x, y, z'
loop_
 _atom_site_type_symbol
 _atom_site_label
 _atom_site_symmetry_multiplicity
 _atom_site_fract_x
 _atom_site_fract_y
 _atom_site_fract_z
 _atom_site_occupancy
 _atom_site_charge
Zn  Zn1  1  0.38410000  0.95909000  0.69784000  1.0 1.0021367794
Zn  Zn2  1  0.95909000  0.69784000  0.38410000  1.0 1.0021367794
Zn  Zn3  1  0.69784000  0.38410000  0.95909000  1.0 1.0021367794
Zn  Zn4  1  0.61590000  0.04091000  0.30216000  1.0 1.0021367794
Zn  Zn5  1  0.04091000  0.30216000  0.61590000  1.0 1.0021367794
Zn  Zn6  1  0.30216000  0.61590000  0.04091000  1.0 1.0021367794
H  H1  1  0.71747000  0.14321000  0.16315000  1.0 0.1505074576
H  H2  1  0.14321000  0.16315000  0.71747000  1.0 0.1505074576
H  H3  1  0.16315000  0.71747000  0.14321000  1.0 0.1505074576
H  H4  1  0.28253000  0.85679000  0.83685000  1.0 0.1505074576
H  H5  1  0.85679000  0.83685000  0.28253000  1.0 0.1505074576
H  H6  1  0.83685000  0.28253000  0.85679000  1.0 0.1505074576
C  C1  1  0.76326000  0.32841000  0.15623000  1.0 0.6027419592
C  C2  1  0.32841000  0.15623000  0.76326000  1.0 0.6027419592
C  C3  1  0.15623000  0.76326000  0.32841000  1.0 0.6027419592
C  C4  1  0.23674000  0.67159000  0.84377000  1.0 0.6027419592
C  C5  1  0.67159000  0.84377000  0.23674000  1.0 0.6027419592
C  C6  1  0.84377000  0.23674000  0.67159000  1.0 0.6027419592
C  C7  1  0.88405000  0.41671000  0.32964000  1.0 -0.1789497807
C  C8  1  0.41671000  0.32964000  0.88405000  1.0 -0.1789497807
C  C9  1  0.32964000  0.88405000  0.41671000  1.0 -0.1789497807
C  C10  1  0.11595000  0.58329000  0.67036000  1.0 -0.1789497807
C  C11  1  0.58329000  0.67036000  0.11595000  1.0 -0.1789497807
C  C12  1  0.67036000  0.11595000  0.58329000  1.0 -0.1789497807
C  C13  1  0.05869000  0.63080000  0.53173000  1.0 0.3030894623
C  C14  1  0.63080000  0.53173000  0.05869000  1.0 0.3030894623
C  C15  1  0.53173000  0.05869000  0.63080000  1.0 0.3030894623
C  C16  1  0.94131000  0.36920000  0.46827000  1.0 0.3030894623
C  C17  1  0.36920000  0.46827000  0.94131000  1.0 0.3030894623
C  C18  1  0.46827000  0.94131000  0.36920000  1.0 0.3030894623
C  C19  1  0.83222000  0.28784000  0.30058000  1.0 -0.1985725685
C  C20  1  0.28784000  0.30058000  0.83222000  1.0 -0.1985725685
C  C21  1  0.30058000  0.83222000  0.28784000  1.0 -0.1985725685
C  C22  1  0.16778000  0.71216000  0.69942000  1.0 -0.1985725685
C  C23  1  0.71216000  0.69942000  0.16778000  1.0 -0.1985725685
C  C24  1  0.69942000  0.16778000  0.71216000  1.0 -0.1985725685
O  O1  1  0.62182000  0.14265000  0.98117000  1.0 -0.4883037978
O  O2  1  0.14265000  0.98117000  0.62182000  1.0 -0.4883037978
O  O3  1  0.98117000  0.62182000  0.14265000  1.0 -0.4883037978
O  O4  1  0.37818000  0.85735000  0.01883000  1.0 -0.4883037978
O  O5  1  0.85735000  0.01883000  0.37818000  1.0 -0.4883037978
O  O6  1  0.01883000  0.37818000  0.85735000  1.0 -0.4883037978
O  O7  1  0.82459000  0.44621000  0.18506000  1.0 -0.5407445207
O  O8  1  0.44621000  0.18506000  0.82459000  1.0 -0.5407445207
O  O9  1  0.18506000  0.82459000  0.44621000  1.0 -0.5407445207
O  O10  1  0.17541000  0.55379000  0.81494000  1.0 -0.5407445207
O  O11  1  0.55379000  0.81494000  0.17541000  1.0 -0.5407445207
O  O12  1  0.81494000  0.17541000  0.55379000  1.0 -0.5407445207
O  O13  1  0.12959000  0.76310000  0.56727000  1.0 -0.6035005226
O  O14  1  0.76310000  0.56727000  0.12959000  1.0 -0.6035005226
O  O15  1  0.56727000  0.12959000  0.76310000  1.0 -0.6035005226
O  O16  1  0.87041000  0.23690000  0.43273000  1.0 -0.6035005226
O  O17  1  0.23690000  0.43273000  0.87041000  1.0 -0.6035005226
O  O18  1  0.43273000  0.87041000  0.23690000  1.0 -0.6035005226
O  O19  1  0.31112000  0.74129000  0.53268000  1.0 -0.0484044682
O  O20  1  0.74129000  0.53268000  0.31112000  1.0 -0.0484044682
O  O21  1  0.53268000  0.31112000  0.74129000  1.0 -0.0484044682
O  O22  1  0.68888000  0.25871000  0.46732000  1.0 -0.0484044682
O  O23  1  0.25871000  0.46732000  0.68888000  1.0 -0.0484044682
O  O24  1  0.46732000  0.68888000  0.25871000  1.0 -0.0484044682
