# DDEC6 charges by PACMAN v1.1 (https://github.com/mtap-research/PACMAN-charge/)
data_WOCJII_ion_pacman
_symmetry_space_group_name_H-M   'P 1'
_cell_length_a   10.22500000
_cell_length_b   19.05300000
_cell_length_c   13.95400000
_cell_angle_alpha   90.00000000
_cell_angle_beta   99.50900000
_cell_angle_gamma   90.00000000
_symmetry_Int_Tables_number   1
_chemical_formula_structural   K4Zr2H28C28N4O35
_chemical_formula_sum   'K8 Zr4 H56 C56 N8 O70'
_cell_volume   2681.12260576
_cell_formula_units_Z   2
loop_
 _symmetry_equiv_pos_site_id
 _symmetry_equiv_pos_as_xyz
  1  'x, y, z'
loop_
 _atom_site_type_symbol
 _atom_site_label
 _atom_site_symmetry_multiplicity
 _atom_site_fract_x
 _atom_site_fract_y
 _atom_site_fract_z
 _atom_site_occupancy
 _atom_site_charge
K  K1  1  0.68135000  0.85146000  0.58870000  1.0 0.8411803245
K  K2  1  0.31865000  0.35146000  0.41130000  1.0 0.8411803245
K  K3  1  0.66840000  0.35274000  0.08141000  1.0 0.8324421346
K  K4  1  0.33160000  0.85274000  0.91859000  1.0 0.8324421346
K  K5  1  0.82140000  0.54858000  0.41787000  1.0 0.8461173624
K  K6  1  0.17860000  0.04858000  0.58213000  1.0 0.8461173624
K  K7  1  0.17340000  0.55079000  0.09519000  1.0 0.8461173624
K  K8  1  0.82660000  0.05079000  0.90481000  1.0 0.8461173624
Zr  Zr1  1  0.49856000  0.62867000  0.25612000  1.0 2.1186745465
Zr  Zr2  1  0.50144000  0.12867000  0.74388000  1.0 2.1186745465
Zr  Zr3  1  0.00885000  0.77298000  0.75503000  1.0 2.1186745465
Zr  Zr4  1  0.99115000  0.27298000  0.24497000  1.0 2.1186745465
H  H1  1  0.13840000  0.27390000  0.87800000  1.0 0.2858480215
H  H2  1  0.87790000  0.27180000  0.61240000  1.0 0.2858480215
H  H3  1  0.18320000  0.35670000  0.77500000  1.0 0.1214964283
H  H4  1  0.22750000  0.28100000  0.73580000  1.0 0.1301401667
H  H5  1  0.01880000  0.36740000  0.64860000  1.0 0.1301401667
H  H6  1  0.08710000  0.30250000  0.59860000  1.0 0.1369093731
H  H7  1  0.01680000  0.17410000  0.84100000  1.0 0.1214964283
H  H8  1  0.14810000  0.17610000  0.78850000  1.0 0.1301401667
H  H9  1  0.89380000  0.16920000  0.69470000  1.0 0.1301401667
H  H10  1  0.02400000  0.17970000  0.64240000  1.0 0.1137284338
H  H11  1  0.92640000  0.29080000  0.89160000  1.0 0.1369093731
H  H12  1  0.98190000  0.36190000  0.84670000  1.0 0.1214964283
H  H13  1  0.78740000  0.26810000  0.75390000  1.0 0.1369093731
H  H14  1  0.82010000  0.34730000  0.71980000  1.0 0.1214964283
H  H15  1  0.86160000  0.77390000  0.12200000  1.0 0.2858480215
H  H16  1  0.12210000  0.77180000  0.38760000  1.0 0.2858480215
H  H17  1  0.81680000  0.85670000  0.22500000  1.0 0.1214964283
H  H18  1  0.77250000  0.78100000  0.26420000  1.0 0.1301401667
H  H19  1  0.98120000  0.86740000  0.35140000  1.0 0.1301401667
H  H20  1  0.91290000  0.80250000  0.40140000  1.0 0.1369093731
H  H21  1  0.98320000  0.67410000  0.15900000  1.0 0.1214964283
H  H22  1  0.85190000  0.67610000  0.21150000  1.0 0.1301401667
H  H23  1  0.10620000  0.66920000  0.30530000  1.0 0.1301401667
H  H24  1  0.97600000  0.67970000  0.35760000  1.0 0.1137284338
H  H25  1  0.07360000  0.79080000  0.10840000  1.0 0.1369093731
H  H26  1  0.01810000  0.86190000  0.15330000  1.0 0.1214964283
H  H27  1  0.21260000  0.76810000  0.24610000  1.0 0.1369093731
H  H28  1  0.17990000  0.84730000  0.28020000  1.0 0.1214964283
H  H29  1  0.32430000  0.10910000  0.31280000  1.0 0.2793440372
H  H30  1  0.61480000  0.12540000  0.13300000  1.0 0.2793440372
H  H31  1  0.25200000  0.07180000  0.16020000  1.0 0.1301401667
H  H32  1  0.26840000  0.15700000  0.15570000  1.0 0.1369093731
H  H33  1  0.42680000  0.05240000  0.08770000  1.0 0.1214964283
H  H34  1  0.40730000  0.13410000  0.05260000  1.0 0.1301401667
H  H35  1  0.51810000  0.17810000  0.36120000  1.0 0.1301401667
H  H36  1  0.39460000  0.22040000  0.29740000  1.0 0.1301401667
H  H37  1  0.63080000  0.21040000  0.24510000  1.0 0.1301401667
H  H38  1  0.49460000  0.22390000  0.16800000  1.0 0.1214964283
H  H39  1  0.50510000  0.04870000  0.36750000  1.0 0.1369093731
H  H40  1  0.43010000  0.00810000  0.27070000  1.0 0.1214964283
H  H41  1  0.62230000  0.02350000  0.21320000  1.0 0.1301401667
H  H42  1  0.67210000  0.08500000  0.29230000  1.0 0.1369093731
H  H43  1  0.67570000  0.60910000  0.68720000  1.0 0.2793440372
H  H44  1  0.38520000  0.62540000  0.86700000  1.0 0.2793440372
H  H45  1  0.74800000  0.57180000  0.83980000  1.0 0.1301401667
H  H46  1  0.73160000  0.65700000  0.84430000  1.0 0.1369093731
H  H47  1  0.57320000  0.55240000  0.91230000  1.0 0.1214964283
H  H48  1  0.59270000  0.63410000  0.94740000  1.0 0.1301401667
H  H49  1  0.48190000  0.67810000  0.63880000  1.0 0.1301401667
H  H50  1  0.60540000  0.72040000  0.70260000  1.0 0.1301401667
H  H51  1  0.36920000  0.71040000  0.75490000  1.0 0.1301401667
H  H52  1  0.50540000  0.72390000  0.83200000  1.0 0.1214964283
H  H53  1  0.49490000  0.54870000  0.63250000  1.0 0.1369093731
H  H54  1  0.56990000  0.50810000  0.72930000  1.0 0.1214964283
H  H55  1  0.37770000  0.52350000  0.78680000  1.0 0.1301401667
H  H56  1  0.32790000  0.58500000  0.70770000  1.0 0.1369093731
C  C1  1  0.66990000  0.52280000  0.16580000  1.0 0.462364614
C  C2  1  0.33010000  0.02280000  0.83420000  1.0 0.462364614
C  C3  1  0.52850000  0.51520000  0.10660000  1.0 0.4793044974
C  C4  1  0.47150000  0.01520000  0.89340000  1.0 0.4793044974
C  C5  1  0.49440000  0.72760000  0.08360000  1.0 0.470057942
C  C6  1  0.50560000  0.22760000  0.91640000  1.0 0.470057942
C  C7  1  0.34770000  0.72530000  0.10150000  1.0 0.470057942
C  C8  1  0.65230000  0.22530000  0.89850000  1.0 0.470057942
C  C9  1  0.51040000  0.72960000  0.42860000  1.0 0.4793044974
C  C10  1  0.48960000  0.22960000  0.57140000  1.0 0.4793044974
C  C11  1  0.65720000  0.72050000  0.41460000  1.0 0.470057942
C  C12  1  0.34280000  0.22050000  0.58540000  1.0 0.470057942
C  C13  1  0.31960000  0.52420000  0.34130000  1.0 0.462364614
C  C14  1  0.68040000  0.02420000  0.65870000  1.0 0.462364614
C  C15  1  0.45710000  0.51520000  0.40380000  1.0 0.4878788093
C  C16  1  0.54290000  0.01520000  0.59620000  1.0 0.4878788093
C  C17  1  0.18460000  0.87580000  0.66780000  1.0 0.470057942
C  C18  1  0.81540000  0.37580000  0.33220000  1.0 0.470057942
C  C19  1  0.04320000  0.88470000  0.60440000  1.0 0.4878788093
C  C20  1  0.95680000  0.38470000  0.39560000  1.0 0.4878788093
C  C21  1  0.00170000  0.66650000  0.58690000  1.0 0.4878788093
C  C22  1  0.99830000  0.16650000  0.41310000  1.0 0.4878788093
C  C23  1  0.86930000  0.65920000  0.62210000  1.0 0.4793044974
C  C24  1  0.13070000  0.15920000  0.37790000  1.0 0.4793044974
C  C25  1  0.15560000  0.66690000  0.89730000  1.0 0.4793044974
C  C26  1  0.84440000  0.16690000  0.10270000  1.0 0.4793044974
C  C27  1  0.01970000  0.67170000  0.92990000  1.0 0.4793044974
C  C28  1  0.98030000  0.17170000  0.07010000  1.0 0.4793044974
C  C29  1  0.82820000  0.87560000  0.83740000  1.0 0.462364614
C  C30  1  0.17180000  0.37560000  0.16260000  1.0 0.462364614
C  C31  1  0.96690000  0.88770000  0.90030000  1.0 0.4793044974
C  C32  1  0.03310000  0.38770000  0.09970000  1.0 0.4793044974
C  C33  1  0.15080000  0.30960000  0.74970000  1.0 -0.1193275296
C  C34  1  0.04780000  0.31730000  0.65640000  1.0 -0.1193275296
C  C35  1  0.06160000  0.19940000  0.79270000  1.0 -0.1306077942
C  C36  1  0.97370000  0.19890000  0.69220000  1.0 -0.1306077942
C  C37  1  0.96210000  0.31090000  0.83500000  1.0 -0.1193275296
C  C38  1  0.85950000  0.30080000  0.74200000  1.0 -0.1193275296
C  C39  1  0.84920000  0.80960000  0.25030000  1.0 -0.1193275296
C  C40  1  0.95220000  0.81730000  0.34360000  1.0 -0.1193275296
C  C41  1  0.93840000  0.69940000  0.20730000  1.0 -0.1306077942
C  C42  1  0.02630000  0.69890000  0.30780000  1.0 -0.1306077942
C  C43  1  0.03790000  0.81090000  0.16500000  1.0 -0.1193275296
C  C44  1  0.14050000  0.80080000  0.25800000  1.0 -0.1193275296
C  C45  1  0.31640000  0.11170000  0.17170000  1.0 -0.1193275296
C  C46  1  0.42500000  0.10220000  0.11030000  1.0 -0.1306077942
C  C47  1  0.45820000  0.18060000  0.29690000  1.0 -0.1306077942
C  C48  1  0.54170000  0.19080000  0.21780000  1.0 -0.1306077942
C  C49  1  0.47490000  0.05270000  0.29580000  1.0 -0.1127724666
C  C50  1  0.59560000  0.06730000  0.24440000  1.0 -0.1127724666
C  C51  1  0.68360000  0.61170000  0.82830000  1.0 -0.1193275296
C  C52  1  0.57500000  0.60220000  0.88970000  1.0 -0.1306077942
C  C53  1  0.54180000  0.68060000  0.70310000  1.0 -0.1306077942
C  C54  1  0.45830000  0.69080000  0.78220000  1.0 -0.1306077942
C  C55  1  0.52510000  0.55270000  0.70420000  1.0 -0.1127724666
C  C56  1  0.40440000  0.56730000  0.75560000  1.0 -0.1127724666
N  N1  1  0.08540000  0.27330000  0.82330000  1.0 0.011188643
N  N2  1  0.93110000  0.27230000  0.66700000  1.0 0.011188643
N  N3  1  0.91460000  0.77330000  0.17670000  1.0 0.011188643
N  N4  1  0.06890000  0.77230000  0.33300000  1.0 0.011188643
N  N5  1  0.38360000  0.11210000  0.27590000  1.0 -0.0028964237
N  N6  1  0.55570000  0.12210000  0.17000000  1.0 0.0008764816
N  N7  1  0.61640000  0.61210000  0.72410000  1.0 -0.0028964237
N  N8  1  0.44430000  0.62210000  0.83000000  1.0 0.0008764816
O  O1  1  0.67680000  0.57080000  0.23130000  1.0 -0.6212152392
O  O2  1  0.32320000  0.07080000  0.76870000  1.0 -0.6212152392
O  O3  1  0.44460000  0.55720000  0.13220000  1.0 -0.6328828633
O  O4  1  0.55540000  0.05720000  0.86780000  1.0 -0.6328828633
O  O5  1  0.76060000  0.48640000  0.14840000  1.0 -0.436228633
O  O6  1  0.23940000  0.98640000  0.85160000  1.0 -0.436228633
O  O7  1  0.50590000  0.47120000  0.04030000  1.0 -0.4985730238
O  O8  1  0.49410000  0.97120000  0.95970000  1.0 -0.4985730238
O  O9  1  0.57510000  0.69540000  0.14840000  1.0 -0.6020779312
O  O10  1  0.42490000  0.19540000  0.85160000  1.0 -0.6020779312
O  O11  1  0.33230000  0.68400000  0.17080000  1.0 -0.6090904236
O  O12  1  0.66770000  0.18400000  0.82920000  1.0 -0.6090904236
O  O13  1  0.52010000  0.75630000  0.01070000  1.0 -0.5168679357
O  O14  1  0.47990000  0.25630000  0.98930000  1.0 -0.5168679357
O  O15  1  0.26240000  0.76060000  0.05160000  1.0 -0.4985730238
O  O16  1  0.73760000  0.26060000  0.94840000  1.0 -0.4985730238
O  O17  1  0.42880000  0.69700000  0.36410000  1.0 -0.6090904236
O  O18  1  0.57120000  0.19700000  0.63590000  1.0 -0.6090904236
O  O19  1  0.66940000  0.67990000  0.34250000  1.0 -0.6212152392
O  O20  1  0.33060000  0.17990000  0.65750000  1.0 -0.6212152392
O  O21  1  0.48510000  0.76360000  0.49710000  1.0 -0.5109812766
O  O22  1  0.51490000  0.26360000  0.50290000  1.0 -0.5109812766
O  O23  1  0.74720000  0.74920000  0.46870000  1.0 -0.5109812766
O  O24  1  0.25280000  0.24920000  0.53130000  1.0 -0.5109812766
O  O25  1  0.31460000  0.57440000  0.27980000  1.0 -0.6090904236
O  O26  1  0.68540000  0.07440000  0.72020000  1.0 -0.6090904236
O  O27  1  0.54480000  0.55610000  0.38030000  1.0 -0.6328828633
O  O28  1  0.45520000  0.05610000  0.61970000  1.0 -0.6328828633
O  O29  1  0.22720000  0.48620000  0.35290000  1.0 -0.4528239518
O  O30  1  0.77280000  0.98620000  0.64710000  1.0 -0.4528239518
O  O31  1  0.47560000  0.47070000  0.46880000  1.0 -0.4985730238
O  O32  1  0.52440000  0.97070000  0.53120000  1.0 -0.4985730238
O  O33  1  0.18990000  0.82610000  0.73010000  1.0 -0.6090904236
O  O34  1  0.81010000  0.32610000  0.26990000  1.0 -0.6090904236
O  O35  1  0.95710000  0.84430000  0.63180000  1.0 -0.6354621947
O  O36  1  0.04290000  0.34430000  0.36820000  1.0 -0.6354621947
O  O37  1  0.27500000  0.91530000  0.65410000  1.0 -0.4588255361
O  O38  1  0.72500000  0.41530000  0.34590000  1.0 -0.4588255361
O  O39  1  0.02630000  0.92680000  0.53770000  1.0 -0.4985730238
O  O40  1  0.97370000  0.42680000  0.46230000  1.0 -0.4985730238
O  O41  1  0.07940000  0.71080000  0.63640000  1.0 -0.5916824043
O  O42  1  0.92060000  0.21080000  0.36360000  1.0 -0.5916824043
O  O43  1  0.85110000  0.70440000  0.68770000  1.0 -0.6212152392
O  O44  1  0.14890000  0.20440000  0.31230000  1.0 -0.6212152392
O  O45  1  0.02820000  0.63040000  0.51870000  1.0 -0.5258768797
O  O46  1  0.97180000  0.13040000  0.48130000  1.0 -0.5258768797
O  O47  1  0.78980000  0.61220000  0.59160000  1.0 -0.5109812766
O  O48  1  0.21020000  0.11220000  0.40840000  1.0 -0.5109812766
O  O49  1  0.17180000  0.71040000  0.82930000  1.0 -0.6212152392
O  O50  1  0.82820000  0.21040000  0.17070000  1.0 -0.6212152392
O  O51  1  0.94260000  0.71540000  0.87870000  1.0 -0.5916824043
O  O52  1  0.05740000  0.21540000  0.12130000  1.0 -0.5916824043
O  O53  1  0.23760000  0.62290000  0.93390000  1.0 -0.5109812766
O  O54  1  0.76240000  0.12290000  0.06610000  1.0 -0.5109812766
O  O55  1  0.99050000  0.63710000  0.99660000  1.0 -0.5168679357
O  O56  1  0.00950000  0.13710000  0.00340000  1.0 -0.5168679357
O  O57  1  0.82480000  0.82550000  0.77660000  1.0 -0.6090904236
O  O58  1  0.17520000  0.32550000  0.22340000  1.0 -0.6090904236
O  O59  1  0.05730000  0.84870000  0.87310000  1.0 -0.6458499134
O  O60  1  0.94270000  0.34870000  0.12690000  1.0 -0.6458499134
O  O61  1  0.73590000  0.91560000  0.84750000  1.0 -0.4717942775
O  O62  1  0.26410000  0.41560000  0.15250000  1.0 -0.4717942775
O  O63  1  0.98200000  0.92920000  0.96730000  1.0 -0.4588255361
O  O64  1  0.01800000  0.42920000  0.03270000  1.0 -0.4588255361
O  O65  1  0.99320000  0.54510000  0.25560000  1.0 0.0162718855
O  O66  1  0.00680000  0.04510000  0.74440000  1.0 0.011188643
O  O67  1  0.24280000  0.94440000  0.08510000  1.0 -0.3027692437
O  O68  1  0.75720000  0.44440000  0.91490000  1.0 -0.3027692437
O  O69  1  0.50740000  0.84980000  0.74780000  1.0 0.0556239709
O  O70  1  0.49260000  0.34980000  0.25220000  1.0 0.0556239709
