# DDEC6 charges by PACMAN v1.1 (https://github.com/mtap-research/PACMAN-charge/)
data_WODREO_FSR_pacman
_symmetry_space_group_name_H-M   'P 1'
_cell_length_a   19.70160000
_cell_length_b   11.57920000
_cell_length_c   21.64610000
_cell_angle_alpha   90.00000000
_cell_angle_beta   93.86600000
_cell_angle_gamma   90.00000000
_symmetry_Int_Tables_number   1
_chemical_formula_structural   Co2H36C41S2(NO3)4
_chemical_formula_sum   'Co8 H144 C164 S8 N16 O48'
_cell_volume   4926.86127858
_cell_formula_units_Z   4
loop_
 _symmetry_equiv_pos_site_id
 _symmetry_equiv_pos_as_xyz
  1  'x, y, z'
loop_
 _atom_site_type_symbol
 _atom_site_label
 _atom_site_symmetry_multiplicity
 _atom_site_fract_x
 _atom_site_fract_y
 _atom_site_fract_z
 _atom_site_occupancy
 _atom_site_charge
Co  Co1  1  0.31984000  0.65377000  0.84882000  1.0 0.9214108855
Co  Co2  1  0.18016000  0.15377000  0.15118000  1.0 0.9214108855
Co  Co3  1  0.68016000  0.34623000  0.15118000  1.0 0.9214108855
Co  Co4  1  0.81984000  0.84623000  0.84882000  1.0 0.9214108855
Co  Co5  1  0.44341000  0.80770000  0.93813000  1.0 0.8458946615
Co  Co6  1  0.05659000  0.30770000  0.06187000  1.0 0.8447554976
Co  Co7  1  0.55659000  0.19230000  0.06187000  1.0 0.8458946615
Co  Co8  1  0.94341000  0.69230000  0.93813000  1.0 0.8458946615
H  H1  1  0.50420000  0.70610000  0.60420000  1.0 0.271287781
H  H2  1  0.99580000  0.20610000  0.39580000  1.0 0.271287781
H  H3  1  0.49580000  0.29390000  0.39580000  1.0 0.271287781
H  H4  1  0.00420000  0.79390000  0.60420000  1.0 0.271287781
H  H5  1  0.33730000  0.52630000  0.24580000  1.0 0.2756558627
H  H6  1  0.16270000  0.02630000  0.75420000  1.0 0.2756558627
H  H7  1  0.66270000  0.47370000  0.75420000  1.0 0.2756558627
H  H8  1  0.83730000  0.97370000  0.24580000  1.0 0.2756558627
H  H9  1  0.59100000  0.74160000  0.85460000  1.0 0.1399112582
H  H10  1  0.90900000  0.24160000  0.14540000  1.0 0.1399112582
H  H11  1  0.40900000  0.25840000  0.14540000  1.0 0.1399112582
H  H12  1  0.09100000  0.75840000  0.85460000  1.0 0.1399112582
H  H13  1  0.66230000  0.76960000  0.68360000  1.0 0.1399112582
H  H14  1  0.83770000  0.26960000  0.31640000  1.0 0.1399112582
H  H15  1  0.33770000  0.23040000  0.31640000  1.0 0.1399112582
H  H16  1  0.16230000  0.73040000  0.68360000  1.0 0.1399112582
H  H17  1  0.46600000  0.67760000  0.70180000  1.0 0.1399112582
H  H18  1  0.03400000  0.17760000  0.29820000  1.0 0.1399112582
H  H19  1  0.53400000  0.32240000  0.29820000  1.0 0.1399112582
H  H20  1  0.96600000  0.82240000  0.70180000  1.0 0.1399112582
H  H21  1  0.65210000  0.76380000  0.47280000  1.0 0.1166083478
H  H22  1  0.84790000  0.26380000  0.52720000  1.0 0.1166083478
H  H23  1  0.34790000  0.23620000  0.52720000  1.0 0.1166083478
H  H24  1  0.15210000  0.73620000  0.47280000  1.0 0.1166083478
H  H25  1  0.61790000  0.74150000  0.36880000  1.0 0.1304113063
H  H26  1  0.88210000  0.24150000  0.63120000  1.0 0.1304113063
H  H27  1  0.38210000  0.25850000  0.63120000  1.0 0.1304113063
H  H28  1  0.11790000  0.75850000  0.36880000  1.0 0.1304113063
H  H29  1  0.53350000  0.66890000  0.28730000  1.0 0.1166083478
H  H30  1  0.96650000  0.16890000  0.71270000  1.0 0.1166083478
H  H31  1  0.46650000  0.33110000  0.71270000  1.0 0.1166083478
H  H32  1  0.03350000  0.83110000  0.28730000  1.0 0.1166083478
H  H33  1  0.35980000  0.52470000  0.33580000  1.0 0.1166083478
H  H34  1  0.14020000  0.02470000  0.66420000  1.0 0.1166083478
H  H35  1  0.64020000  0.47530000  0.66420000  1.0 0.1166083478
H  H36  1  0.85980000  0.97530000  0.33580000  1.0 0.1166083478
H  H37  1  0.39210000  0.55150000  0.43850000  1.0 0.1166083478
H  H38  1  0.10790000  0.05150000  0.56150000  1.0 0.1166083478
H  H39  1  0.60790000  0.44850000  0.56150000  1.0 0.1166083478
H  H40  1  0.89210000  0.94850000  0.43850000  1.0 0.1166083478
H  H41  1  0.47650000  0.62770000  0.52150000  1.0 0.1166083478
H  H42  1  0.02350000  0.12770000  0.47850000  1.0 0.1166083478
H  H43  1  0.52350000  0.37230000  0.47850000  1.0 0.1166083478
H  H44  1  0.97650000  0.87230000  0.52150000  1.0 0.1166083478
H  H45  1  0.40330000  0.62070000  0.10700000  1.0 0.1304113063
H  H46  1  0.09670000  0.12070000  0.89300000  1.0 0.1304113063
H  H47  1  0.59670000  0.37930000  0.89300000  1.0 0.1304113063
H  H48  1  0.90330000  0.87930000  0.10700000  1.0 0.1304113063
H  H49  1  0.24400000  0.49920000  0.99740000  1.0 0.1304113063
H  H50  1  0.25600000  0.99920000  0.00260000  1.0 0.1304113063
H  H51  1  0.75600000  0.50080000  0.00260000  1.0 0.1304113063
H  H52  1  0.74400000  0.00080000  0.99740000  1.0 0.1304113063
H  H53  1  0.25490000  0.43120000  0.18120000  1.0 0.1304113063
H  H54  1  0.24510000  0.93120000  0.81880000  1.0 0.1304113063
H  H55  1  0.74510000  0.56880000  0.81880000  1.0 0.1304113063
H  H56  1  0.75490000  0.06880000  0.18120000  1.0 0.1304113063
H  H57  1  0.39540000  0.44670000  0.79430000  1.0 0.1109510736
H  H58  1  0.10460000  0.94670000  0.20570000  1.0 0.1109510736
H  H59  1  0.60460000  0.55330000  0.20570000  1.0 0.1109510736
H  H60  1  0.89540000  0.05330000  0.79430000  1.0 0.1109510736
H  H61  1  0.38590000  0.25080000  0.77960000  1.0 0.1304113063
H  H62  1  0.11410000  0.75080000  0.22040000  1.0 0.1304113063
H  H63  1  0.61410000  0.74920000  0.22040000  1.0 0.1304113063
H  H64  1  0.88590000  0.24920000  0.77960000  1.0 0.1304113063
H  H65  1  0.27660000  0.16700000  0.78220000  1.0 0.1109510736
H  H66  1  0.22340000  0.66700000  0.21780000  1.0 0.1109510736
H  H67  1  0.72340000  0.83300000  0.21780000  1.0 0.1109510736
H  H68  1  0.77660000  0.33300000  0.78220000  1.0 0.1109510736
H  H69  1  0.19790000  0.27040000  0.83730000  1.0 0.1304113063
H  H70  1  0.30210000  0.77040000  0.16270000  1.0 0.1304113063
H  H71  1  0.80210000  0.72960000  0.16270000  1.0 0.1304113063
H  H72  1  0.69790000  0.22960000  0.83730000  1.0 0.1304113063
H  H73  1  0.21570000  0.46390000  0.85660000  1.0 0.1109510736
H  H74  1  0.28430000  0.96390000  0.14340000  1.0 0.1109510736
H  H75  1  0.78430000  0.53610000  0.14340000  1.0 0.1109510736
H  H76  1  0.71570000  0.03610000  0.85660000  1.0 0.1109510736
H  H77  1  0.55590000  0.98730000  0.95280000  1.0 0.1166083478
H  H78  1  0.94410000  0.48730000  0.04720000  1.0 0.1166083478
H  H79  1  0.44410000  0.01270000  0.04720000  1.0 0.1166083478
H  H80  1  0.05590000  0.51270000  0.95280000  1.0 0.1166083478
H  H81  1  0.60540000  0.14020000  0.90270000  1.0 0.1304113063
H  H82  1  0.89460000  0.64020000  0.09730000  1.0 0.1304113063
H  H83  1  0.39460000  0.85980000  0.09730000  1.0 0.1304113063
H  H84  1  0.10540000  0.35980000  0.90270000  1.0 0.1304113063
H  H85  1  0.56230000  0.18790000  0.80290000  1.0 0.1005730909
H  H86  1  0.93770000  0.68790000  0.19710000  1.0 0.1005730909
H  H87  1  0.43770000  0.81210000  0.19710000  1.0 0.1005730909
H  H88  1  0.06230000  0.31210000  0.80290000  1.0 0.1005730909
H  H89  1  0.47630000  0.06950000  0.75300000  1.0 0.1166083478
H  H90  1  0.02370000  0.56950000  0.24700000  1.0 0.1166083478
H  H91  1  0.52370000  0.93050000  0.24700000  1.0 0.1166083478
H  H92  1  0.97630000  0.43050000  0.75300000  1.0 0.1166083478
H  H93  1  0.42710000  0.93040000  0.81310000  1.0 0.1005730909
H  H94  1  0.07290000  0.43040000  0.18690000  1.0 0.1005730909
H  H95  1  0.57290000  0.06960000  0.18690000  1.0 0.1005730909
H  H96  1  0.92710000  0.56960000  0.81310000  1.0 0.1005730909
H  H97  1  0.67120000  0.82890000  0.00470000  1.0 0.1005730909
H  H98  1  0.82880000  0.32890000  0.99530000  1.0 0.1005730909
H  H99  1  0.32880000  0.17110000  0.99530000  1.0 0.1005730909
H  H100  1  0.17120000  0.67110000  0.00470000  1.0 0.1005730909
H  H101  1  0.64950000  0.70920000  0.97210000  1.0 0.0709138284
H  H102  1  0.85050000  0.20920000  0.02790000  1.0 0.0709138284
H  H103  1  0.35050000  0.29080000  0.02790000  1.0 0.0709138284
H  H104  1  0.14950000  0.79080000  0.97210000  1.0 0.0709138284
H  H105  1  0.68600000  0.70970000  0.04050000  1.0 0.1005730909
H  H106  1  0.81400000  0.20970000  0.95950000  1.0 0.1005730909
H  H107  1  0.31400000  0.29030000  0.95950000  1.0 0.1005730909
H  H108  1  0.18600000  0.79030000  0.04050000  1.0 0.1005730909
H  H109  1  0.50400000  0.60160000  0.05270000  1.0 0.1109510736
H  H110  1  0.99600000  0.10160000  0.94730000  1.0 0.1109510736
H  H111  1  0.49600000  0.39840000  0.94730000  1.0 0.1109510736
H  H112  1  0.00400000  0.89840000  0.05270000  1.0 0.1109510736
H  H113  1  0.58260000  0.56590000  0.06030000  1.0 0.1005730909
H  H114  1  0.91740000  0.06590000  0.93970000  1.0 0.1005730909
H  H115  1  0.41740000  0.43410000  0.93970000  1.0 0.1005730909
H  H116  1  0.08260000  0.93410000  0.06030000  1.0 0.1005730909
H  H117  1  0.54720000  0.59100000  0.99290000  1.0 0.0831675587
H  H118  1  0.95280000  0.09100000  0.00710000  1.0 0.0831675587
H  H119  1  0.45280000  0.40900000  0.00710000  1.0 0.0831675587
H  H120  1  0.04720000  0.90900000  0.99290000  1.0 0.0831675587
H  H121  1  0.68670000  0.68920000  0.02260000  1.0 0.1005730909
H  H122  1  0.81330000  0.18920000  0.97740000  1.0 0.1005730909
H  H123  1  0.31330000  0.31080000  0.97740000  1.0 0.1005730909
H  H124  1  0.18670000  0.81080000  0.02260000  1.0 0.1005730909
H  H125  1  0.66610000  0.78800000  0.97310000  1.0 0.1109510736
H  H126  1  0.83390000  0.28800000  0.02690000  1.0 0.1109510736
H  H127  1  0.33390000  0.21200000  0.02690000  1.0 0.1109510736
H  H128  1  0.16610000  0.71200000  0.97310000  1.0 0.1109510736
H  H129  1  0.65520000  0.80830000  0.04490000  1.0 0.0709138284
H  H130  1  0.84480000  0.30830000  0.95510000  1.0 0.0709138284
H  H131  1  0.34480000  0.19170000  0.95510000  1.0 0.0709138284
H  H132  1  0.15520000  0.69170000  0.04490000  1.0 0.0709138284
H  H133  1  0.51570000  0.60460000  0.07530000  1.0 0.1109510736
H  H134  1  0.98430000  0.10460000  0.92470000  1.0 0.1109510736
H  H135  1  0.48430000  0.39540000  0.92470000  1.0 0.1109510736
H  H136  1  0.01570000  0.89540000  0.07530000  1.0 0.1109510736
H  H137  1  0.56280000  0.70540000  0.10520000  1.0 0.0831675587
H  H138  1  0.93720000  0.20540000  0.89480000  1.0 0.0831675587
H  H139  1  0.43720000  0.29460000  0.89480000  1.0 0.0831675587
H  H140  1  0.06280000  0.79460000  0.10520000  1.0 0.0831675587
H  H141  1  0.59580000  0.58420000  0.08810000  1.0 0.1166083478
H  H142  1  0.90420000  0.08420000  0.91190000  1.0 0.1166083478
H  H143  1  0.40420000  0.41580000  0.91190000  1.0 0.1166083478
H  H144  1  0.09580000  0.91580000  0.08810000  1.0 0.1166083478
C  C1  1  0.46340000  0.67930000  0.82540000  1.0 0.5661320508
C  C2  1  0.03660000  0.17930000  0.17460000  1.0 0.5661320508
C  C3  1  0.53660000  0.32070000  0.17460000  1.0 0.5661320508
C  C4  1  0.96340000  0.82070000  0.82540000  1.0 0.5661320508
C  C5  1  0.70500000  0.79330000  0.80170000  1.0 0.5252840986
C  C6  1  0.79500000  0.29330000  0.19830000  1.0 0.5252840986
C  C7  1  0.29500000  0.20670000  0.19830000  1.0 0.5252840986
C  C8  1  0.20500000  0.70670000  0.80170000  1.0 0.5252840986
C  C9  1  0.52060000  0.70350000  0.78410000  1.0 0.007497548
C  C10  1  0.97940000  0.20350000  0.21590000  1.0 0.007497548
C  C11  1  0.47940000  0.29650000  0.21590000  1.0 0.007497548
C  C12  1  0.02060000  0.79650000  0.78410000  1.0 0.007497548
C  C13  1  0.58360000  0.73600000  0.81080000  1.0 -0.1330894932
C  C14  1  0.91640000  0.23600000  0.18920000  1.0 -0.1330894932
C  C15  1  0.41640000  0.26400000  0.18920000  1.0 -0.1330894932
C  C16  1  0.08360000  0.76400000  0.81080000  1.0 -0.1330894932
C  C17  1  0.63600000  0.76010000  0.77280000  1.0 0.0178413138
C  C18  1  0.86400000  0.26010000  0.22720000  1.0 0.0178413138
C  C19  1  0.36400000  0.23990000  0.22720000  1.0 0.0178413138
C  C20  1  0.13600000  0.73990000  0.77280000  1.0 0.0178413138
C  C21  1  0.62600000  0.75320000  0.70890000  1.0 -0.2335141405
C  C22  1  0.87400000  0.25320000  0.29110000  1.0 -0.2335141405
C  C23  1  0.37400000  0.24680000  0.29110000  1.0 -0.2335141405
C  C24  1  0.12600000  0.74680000  0.70890000  1.0 -0.2335141405
C  C25  1  0.56210000  0.72210000  0.68200000  1.0 0.2028427504
C  C26  1  0.93790000  0.22210000  0.31800000  1.0 0.2028427504
C  C27  1  0.43790000  0.27790000  0.31800000  1.0 0.2028427504
C  C28  1  0.06210000  0.77790000  0.68200000  1.0 0.2028427504
C  C29  1  0.50960000  0.69800000  0.71990000  1.0 -0.2114890471
C  C30  1  0.99040000  0.19800000  0.28010000  1.0 -0.2114890471
C  C31  1  0.49040000  0.30200000  0.28010000  1.0 -0.2114890471
C  C32  1  0.00960000  0.80200000  0.71990000  1.0 -0.2114890471
C  C33  1  0.59220000  0.71880000  0.57290000  1.0 0.3910064221
C  C34  1  0.90780000  0.21880000  0.42710000  1.0 0.3910064221
C  C35  1  0.40780000  0.28120000  0.42710000  1.0 0.3910064221
C  C36  1  0.09220000  0.78120000  0.57290000  1.0 0.3910064221
C  C37  1  0.56420000  0.70330000  0.50660000  1.0 -0.0331609801
C  C38  1  0.93580000  0.20330000  0.49340000  1.0 -0.0331609801
C  C39  1  0.43580000  0.29670000  0.49340000  1.0 -0.0331609801
C  C40  1  0.06420000  0.79670000  0.50660000  1.0 -0.0331609801
C  C41  1  0.60840000  0.73310000  0.46110000  1.0 -0.1400218673
C  C42  1  0.89160000  0.23310000  0.53890000  1.0 -0.1400218673
C  C43  1  0.39160000  0.26690000  0.53890000  1.0 -0.1400218673
C  C44  1  0.10840000  0.76690000  0.46110000  1.0 -0.1400218673
C  C45  1  0.58840000  0.71790000  0.39940000  1.0 -0.1480500812
C  C46  1  0.91160000  0.21790000  0.60060000  1.0 -0.1480500812
C  C47  1  0.41160000  0.28210000  0.60060000  1.0 -0.1480500812
C  C48  1  0.08840000  0.78210000  0.39940000  1.0 -0.1480500812
C  C49  1  0.52570000  0.66840000  0.38090000  1.0 0.0831675587
C  C50  1  0.97430000  0.16840000  0.61910000  1.0 0.0831675587
C  C51  1  0.47430000  0.33160000  0.61910000  1.0 0.0831675587
C  C52  1  0.02570000  0.83160000  0.38090000  1.0 0.0831675587
C  C53  1  0.50440000  0.64700000  0.31850000  1.0 -0.1735036188
C  C54  1  0.99560000  0.14700000  0.68150000  1.0 -0.1735036188
C  C55  1  0.49560000  0.35300000  0.68150000  1.0 -0.1735036188
C  C56  1  0.00440000  0.85300000  0.31850000  1.0 -0.1735036188
C  C57  1  0.44350000  0.59580000  0.30130000  1.0 -0.0065514461
C  C58  1  0.05650000  0.09580000  0.69870000  1.0 -0.0065514461
C  C59  1  0.55650000  0.40420000  0.69870000  1.0 -0.0065514461
C  C60  1  0.94350000  0.90420000  0.30130000  1.0 -0.0065514461
C  C61  1  0.40210000  0.56100000  0.34720000  1.0 -0.1480500812
C  C62  1  0.09790000  0.06100000  0.65280000  1.0 -0.1480500812
C  C63  1  0.59790000  0.43900000  0.65280000  1.0 -0.1480500812
C  C64  1  0.90210000  0.93900000  0.34720000  1.0 -0.1480500812
C  C65  1  0.42090000  0.57810000  0.40810000  1.0 -0.158767882
C  C66  1  0.07910000  0.07810000  0.59190000  1.0 -0.158767882
C  C67  1  0.57910000  0.42190000  0.59190000  1.0 -0.158767882
C  C68  1  0.92090000  0.92190000  0.40810000  1.0 -0.158767882
C  C69  1  0.48230000  0.63420000  0.42730000  1.0 0.0892982491
C  C70  1  0.01770000  0.13420000  0.57270000  1.0 0.0892982491
C  C71  1  0.51770000  0.36580000  0.57270000  1.0 0.0892982491
C  C72  1  0.98230000  0.86580000  0.42730000  1.0 0.0892982491
C  C73  1  0.50460000  0.65240000  0.49010000  1.0 -0.1760778755
C  C74  1  0.99540000  0.15240000  0.50990000  1.0 -0.1760778755
C  C75  1  0.49540000  0.34760000  0.50990000  1.0 -0.1735036188
C  C76  1  0.00460000  0.84760000  0.49010000  1.0 -0.1760778755
C  C77  1  0.42660000  0.57910000  0.23260000  1.0 0.4621961683
C  C78  1  0.07340000  0.07910000  0.76740000  1.0 0.4621961683
C  C79  1  0.57340000  0.42090000  0.76740000  1.0 0.4621961683
C  C80  1  0.92660000  0.92090000  0.23260000  1.0 0.4621961683
C  C81  1  0.33420000  0.52870000  0.15450000  1.0 0.2233258904
C  C82  1  0.16580000  0.02870000  0.84550000  1.0 0.2233258904
C  C83  1  0.66580000  0.47130000  0.84550000  1.0 0.2233258904
C  C84  1  0.83420000  0.97130000  0.15450000  1.0 0.2233258904
C  C85  1  0.36170000  0.57900000  0.10250000  1.0 -0.2976014843
C  C86  1  0.13830000  0.07900000  0.89750000  1.0 -0.2976014843
C  C87  1  0.63830000  0.42100000  0.89750000  1.0 -0.2976014843
C  C88  1  0.86170000  0.92100000  0.10250000  1.0 -0.2948741049
C  C89  1  0.32760000  0.56740000  0.04450000  1.0 -0.0185055511
C  C90  1  0.17240000  0.06740000  0.95550000  1.0 -0.0185055511
C  C91  1  0.67240000  0.43260000  0.95550000  1.0 -0.0185055511
C  C92  1  0.82760000  0.93260000  0.04450000  1.0 -0.0185055511
C  C93  1  0.26670000  0.50690000  0.03740000  1.0 -0.1879208117
C  C94  1  0.23330000  0.00690000  0.96260000  1.0 -0.1879208117
C  C95  1  0.73330000  0.49310000  0.96260000  1.0 -0.1879208117
C  C96  1  0.76670000  0.99310000  0.03740000  1.0 -0.1879208117
C  C97  1  0.23900000  0.45780000  0.08830000  1.0 -0.0065514461
C  C98  1  0.26100000  0.95780000  0.91170000  1.0 -0.0065514461
C  C99  1  0.76100000  0.54220000  0.91170000  1.0 -0.0065514461
C  C100  1  0.73900000  0.04220000  0.08830000  1.0 -0.0065514461
C  C101  1  0.27320000  0.46710000  0.14650000  1.0 -0.218439446
C  C102  1  0.22680000  0.96710000  0.85350000  1.0 -0.218439446
C  C103  1  0.72680000  0.53290000  0.85350000  1.0 -0.218439446
C  C104  1  0.77320000  0.03290000  0.14650000  1.0 -0.218439446
C  C105  1  0.35600000  0.62480000  0.98910000  1.0 0.5252840986
C  C106  1  0.14400000  0.12480000  0.01090000  1.0 0.5241380602
C  C107  1  0.64400000  0.37520000  0.01090000  1.0 0.5241380602
C  C108  1  0.85600000  0.87520000  0.98910000  1.0 0.5252840986
C  C109  1  0.17210000  0.39800000  0.08020000  1.0 0.5473973126
C  C110  1  0.32790000  0.89800000  0.91980000  1.0 0.5473973126
C  C111  1  0.82790000  0.60200000  0.91980000  1.0 0.5473973126
C  C112  1  0.67210000  0.10200000  0.08020000  1.0 0.5473973126
C  C113  1  0.35360000  0.41050000  0.80240000  1.0 0.0559835116
C  C114  1  0.14640000  0.91050000  0.19760000  1.0 0.0559835116
C  C115  1  0.64640000  0.58950000  0.19760000  1.0 0.0559835116
C  C116  1  0.85360000  0.08950000  0.80240000  1.0 0.0559835116
C  C117  1  0.34790000  0.29450000  0.79120000  1.0 -0.1735036188
C  C118  1  0.15210000  0.79450000  0.20880000  1.0 -0.1735036188
C  C119  1  0.65210000  0.70550000  0.20880000  1.0 -0.1735036188
C  C120  1  0.84790000  0.20550000  0.79120000  1.0 -0.1735036188
C  C121  1  0.28600000  0.24290000  0.79710000  1.0 -0.0376562282
C  C122  1  0.21400000  0.74290000  0.20290000  1.0 -0.0376562282
C  C123  1  0.71400000  0.75710000  0.20290000  1.0 -0.0376562282
C  C124  1  0.78600000  0.25710000  0.79710000  1.0 -0.0376562282
C  C125  1  0.23860000  0.30610000  0.82560000  1.0 -0.1480500812
C  C126  1  0.26140000  0.80610000  0.17440000  1.0 -0.1480500812
C  C127  1  0.76140000  0.69390000  0.17440000  1.0 -0.1480500812
C  C128  1  0.73860000  0.19390000  0.82560000  1.0 -0.1480500812
C  C129  1  0.24980000  0.42130000  0.83740000  1.0 0.0709138284
C  C130  1  0.25020000  0.92130000  0.16260000  1.0 0.0709138284
C  C131  1  0.75020000  0.57870000  0.16260000  1.0 0.0709138284
C  C132  1  0.74980000  0.07870000  0.83740000  1.0 0.0709138284
C  C133  1  0.53870000  0.00660000  0.91200000  1.0 0.0337628776
C  C134  1  0.96130000  0.50660000  0.08800000  1.0 0.0337628776
C  C135  1  0.46130000  0.99340000  0.08800000  1.0 0.0337628776
C  C136  1  0.03870000  0.49340000  0.91200000  1.0 0.0337628776
C  C137  1  0.56890000  0.09780000  0.88270000  1.0 -0.1480500812
C  C138  1  0.93110000  0.59780000  0.11730000  1.0 -0.1480500812
C  C139  1  0.43110000  0.90220000  0.11730000  1.0 -0.1480500812
C  C140  1  0.06890000  0.40220000  0.88270000  1.0 -0.1480500812
C  C141  1  0.54420000  0.12420000  0.82400000  1.0 -0.0517787976
C  C142  1  0.95580000  0.62420000  0.17600000  1.0 -0.0517787976
C  C143  1  0.45580000  0.87580000  0.17600000  1.0 -0.0517787976
C  C144  1  0.04420000  0.37580000  0.82400000  1.0 -0.0517787976
C  C145  1  0.49220000  0.05720000  0.79490000  1.0 -0.158767882
C  C146  1  0.00780000  0.55720000  0.20510000  1.0 -0.158767882
C  C147  1  0.50780000  0.94280000  0.20510000  1.0 -0.158767882
C  C148  1  0.99220000  0.44280000  0.79490000  1.0 -0.158767882
C  C149  1  0.46510000  0.97170000  0.83110000  1.0 0.0892982491
C  C150  1  0.03490000  0.47170000  0.16890000  1.0 0.0892982491
C  C151  1  0.53490000  0.02830000  0.16890000  1.0 0.0892982491
C  C152  1  0.96510000  0.52830000  0.83110000  1.0 0.0892982491
C  C153  1  0.65400000  0.75090000  0.01160000  1.0 -0.3456662625
C  C154  1  0.84600000  0.25090000  0.98840000  1.0 -0.3456662625
C  C155  1  0.34600000  0.24910000  0.98840000  1.0 -0.3456662625
C  C156  1  0.15400000  0.74910000  0.01160000  1.0 -0.3456662625
C  C157  1  0.54880000  0.61340000  0.03670000  1.0 -0.218439446
C  C158  1  0.95120000  0.11340000  0.96330000  1.0 -0.218439446
C  C159  1  0.45120000  0.38660000  0.96330000  1.0 -0.218439446
C  C160  1  0.04880000  0.88660000  0.03670000  1.0 -0.218439446
C  C161  1  0.56060000  0.64100000  0.07570000  1.0 -0.2372453466
C  C162  1  0.93940000  0.14100000  0.92430000  1.0 -0.2372453466
C  C163  1  0.43940000  0.35900000  0.92430000  1.0 -0.2372453466
C  C164  1  0.06060000  0.85900000  0.07570000  1.0 -0.2372453466
S  S1  1  0.57162000  0.75960000  0.04396000  1.0 0.2028427504
S  S2  1  0.92838000  0.25960000  0.95604000  1.0 0.2028427504
S  S3  1  0.42838000  0.24040000  0.95604000  1.0 0.2028427504
S  S4  1  0.07162000  0.74040000  0.04396000  1.0 0.2028427504
S  S5  1  0.57440000  0.69340000  0.00109000  1.0 0.1399112582
S  S6  1  0.92560000  0.19340000  0.99891000  1.0 0.1399112582
S  S7  1  0.42560000  0.30660000  0.99891000  1.0 0.1458479285
S  S8  1  0.07440000  0.80660000  0.00109000  1.0 0.1399112582
N  N1  1  0.54720000  0.71450000  0.61700000  1.0 -0.4329731271
N  N2  1  0.95280000  0.21450000  0.38300000  1.0 -0.4329731271
N  N3  1  0.45280000  0.28550000  0.38300000  1.0 -0.4329731271
N  N4  1  0.04720000  0.78550000  0.61700000  1.0 -0.4329731271
N  N5  1  0.36350000  0.54300000  0.21560000  1.0 -0.3694319307
N  N6  1  0.13650000  0.04300000  0.78440000  1.0 -0.3694319307
N  N7  1  0.63650000  0.45700000  0.78440000  1.0 -0.3694319307
N  N8  1  0.86350000  0.95700000  0.21560000  1.0 -0.3694319307
N  N9  1  0.30560000  0.47580000  0.82340000  1.0 -0.2372453466
N  N10  1  0.19440000  0.97580000  0.17660000  1.0 -0.2372453466
N  N11  1  0.69440000  0.52420000  0.17660000  1.0 -0.2372453466
N  N12  1  0.80560000  0.02420000  0.82340000  1.0 -0.2372453466
N  N13  1  0.48610000  0.94280000  0.88640000  1.0 -0.2635850191
N  N14  1  0.01390000  0.44280000  0.11360000  1.0 -0.2635850191
N  N15  1  0.51390000  0.05720000  0.11360000  1.0 -0.2635850191
N  N16  1  0.98610000  0.55720000  0.88640000  1.0 -0.2635850191
O  O1  1  0.40504000  0.66000000  0.80028000  1.0 -0.5401943058
O  O2  1  0.09496000  0.16000000  0.19972000  1.0 -0.5401943058
O  O3  1  0.59496000  0.34000000  0.19972000  1.0 -0.5401943058
O  O4  1  0.90504000  0.84000000  0.80028000  1.0 -0.5401943058
O  O5  1  0.47770000  0.68190000  0.88296000  1.0 -0.5810356319
O  O6  1  0.02230000  0.18190000  0.11704000  1.0 -0.5810356319
O  O7  1  0.52230000  0.31810000  0.11704000  1.0 -0.5810356319
O  O8  1  0.97770000  0.81810000  0.88296000  1.0 -0.5810356319
O  O9  1  0.71159000  0.81760000  0.85820000  1.0 -0.5281694263
O  O10  1  0.78841000  0.31760000  0.14180000  1.0 -0.5281694263
O  O11  1  0.28841000  0.18240000  0.14180000  1.0 -0.5281694263
O  O12  1  0.21159000  0.68240000  0.85820000  1.0 -0.5281694263
O  O13  1  0.75512000  0.79440000  0.76845000  1.0 -0.5209697813
O  O14  1  0.74488000  0.29440000  0.23155000  1.0 -0.5209697813
O  O15  1  0.24488000  0.20560000  0.23155000  1.0 -0.5209697813
O  O16  1  0.25512000  0.70560000  0.76845000  1.0 -0.5209697813
O  O17  1  0.65670000  0.71000000  0.58480000  1.0 -0.1088460527
O  O18  1  0.84330000  0.21000000  0.41520000  1.0 -0.1088460527
O  O19  1  0.34330000  0.29000000  0.41520000  1.0 -0.1088460527
O  O20  1  0.15670000  0.79000000  0.58480000  1.0 -0.1088460527
O  O21  1  0.46940000  0.59870000  0.19585000  1.0 -0.4460352317
O  O22  1  0.03060000  0.09870000  0.80415000  1.0 -0.4460352317
O  O23  1  0.53060000  0.40130000  0.80415000  1.0 -0.4460352317
O  O24  1  0.96940000  0.90130000  0.19585000  1.0 -0.4460352317
O  O25  1  0.40420000  0.69280000  0.99912000  1.0 -0.5209697813
O  O26  1  0.09580000  0.19280000  0.00088000  1.0 -0.5209697813
O  O27  1  0.59580000  0.30720000  0.00088000  1.0 -0.5209697813
O  O28  1  0.90420000  0.80720000  0.99912000  1.0 -0.5209697813
O  O29  1  0.32935000  0.59640000  0.93707000  1.0 -0.5401943058
O  O30  1  0.17065000  0.09640000  0.06293000  1.0 -0.5401943058
O  O31  1  0.67065000  0.40360000  0.06293000  1.0 -0.5401943058
O  O32  1  0.82935000  0.90360000  0.93707000  1.0 -0.5401943058
O  O33  1  0.13340000  0.42080000  0.03330000  1.0 -0.4905219107
O  O34  1  0.36660000  0.92080000  0.96670000  1.0 -0.4905219107
O  O35  1  0.86660000  0.57920000  0.96670000  1.0 -0.4905219107
O  O36  1  0.63340000  0.07920000  0.03330000  1.0 -0.4905219107
O  O37  1  0.15373000  0.32810000  0.12088000  1.0 -0.5810356319
O  O38  1  0.34627000  0.82810000  0.87912000  1.0 -0.5810356319
O  O39  1  0.84627000  0.67190000  0.87912000  1.0 -0.5810356319
O  O40  1  0.65373000  0.17190000  0.12088000  1.0 -0.5810356319
O  O41  1  0.52910000  0.81260000  0.99700000  1.0 -0.3765963644
O  O42  1  0.97090000  0.31260000  0.00300000  1.0 -0.3765963644
O  O43  1  0.47090000  0.18740000  0.00300000  1.0 -0.3765963644
O  O44  1  0.02910000  0.68740000  0.99700000  1.0 -0.3765963644
O  O45  1  0.64310000  0.79100000  0.58080000  1.0 -0.0517787976
O  O46  1  0.85690000  0.29100000  0.41920000  1.0 -0.0517787976
O  O47  1  0.35690000  0.20900000  0.41920000  1.0 -0.0376562282
O  O48  1  0.14310000  0.70900000  0.58080000  1.0 -0.0376562282
