# DDEC6 charges by PACMAN v1.1 (https://github.com/mtap-research/PACMAN-charge/)
data_WOGLAF_FSR_pacman
_symmetry_space_group_name_H-M   'P 1'
_cell_length_a   7.65690000
_cell_length_b   15.24100000
_cell_length_c   7.65890000
_cell_angle_alpha   90.00000000
_cell_angle_beta   92.74000000
_cell_angle_gamma   90.00000000
_symmetry_Int_Tables_number   1
_chemical_formula_structural   Zn4P3O13
_chemical_formula_sum   'Zn8 P6 O26'
_cell_volume   892.76271451
_cell_formula_units_Z   2
loop_
 _symmetry_equiv_pos_site_id
 _symmetry_equiv_pos_as_xyz
  1  'x, y, z'
loop_
 _atom_site_type_symbol
 _atom_site_label
 _atom_site_symmetry_multiplicity
 _atom_site_fract_x
 _atom_site_fract_y
 _atom_site_fract_z
 _atom_site_occupancy
 _atom_site_charge
Zn  Zn1  1  0.80660000  0.70000000  0.09340000  1.0 1.057477501
Zn  Zn2  1  0.19340000  0.20000000  0.90660000  1.0 1.057477501
Zn  Zn3  1  0.08150000  0.70460000  0.79000000  1.0 1.0998005837
Zn  Zn4  1  0.91850000  0.20460000  0.21000000  1.0 1.0998005837
Zn  Zn5  1  0.80680000  0.54400000  0.80800000  1.0 1.1310227185
Zn  Zn6  1  0.19320000  0.04400000  0.19200000  1.0 1.1310227185
Zn  Zn7  1  0.12070000  0.56430000  0.09690000  1.0 1.0998005837
Zn  Zn8  1  0.87930000  0.06430000  0.90310000  1.0 1.0998005837
P  P1  1  0.92240000  0.61740000  0.44340000  1.0 1.4888279508
P  P2  1  0.07760000  0.11740000  0.55660000  1.0 1.4888279508
P  P3  1  0.00160000  0.87440000  0.01160000  1.0 1.4888279508
P  P4  1  0.99840000  0.37440000  0.98840000  1.0 1.4792210728
P  P5  1  0.45520000  0.63800000  0.91720000  1.0 1.5054403216
P  P6  1  0.54480000  0.13800000  0.08280000  1.0 1.5038674742
O  O1  1  0.95200000  0.62850000  0.94500000  1.0 -0.8725442022
O  O2  1  0.04800000  0.12850000  0.05500000  1.0 -0.8725442022
O  O3  1  0.57800000  0.71500000  0.96700000  1.0 -0.6693495355
O  O4  1  0.42200000  0.21500000  0.03300000  1.0 -0.6693495355
O  O5  1  0.76900000  0.64280000  0.31400000  1.0 -0.6693495355
O  O6  1  0.23100000  0.14280000  0.68600000  1.0 -0.6693495355
O  O7  1  0.92800000  0.81040000  0.14100000  1.0 -0.6595668152
O  O8  1  0.07200000  0.31040000  0.85900000  1.0 -0.6595668152
O  O9  1  0.97700000  0.69840000  0.55300000  1.0 -0.6693495355
O  O10  1  0.02300000  0.19840000  0.44700000  1.0 -0.6693495355
O  O11  1  0.32600000  0.67110000  0.76800000  1.0 -0.6595668152
O  O12  1  0.67400000  0.17110000  0.23200000  1.0 -0.6595668152
O  O13  1  0.06900000  0.82700000  0.85200000  1.0 -0.6693495355
O  O14  1  0.93100000  0.32700000  0.14800000  1.0 -0.6693495355
O  O15  1  0.86700000  0.54330000  0.56500000  1.0 -0.6693495355
O  O16  1  0.13300000  0.04330000  0.43500000  1.0 -0.6693495355
O  O17  1  0.15500000  0.92490000  0.10600000  1.0 -0.6595668152
O  O18  1  0.84500000  0.42490000  0.89400000  1.0 -0.6595668152
O  O19  1  0.55900000  0.55890000  0.84400000  1.0 -0.6693495355
O  O20  1  0.44100000  0.05890000  0.15600000  1.0 -0.6693495355
O  O21  1  0.35700000  0.61080000  0.07700000  1.0 -0.6693495355
O  O22  1  0.64300000  0.11080000  0.92300000  1.0 -0.6693495355
O  O23  1  0.08000000  0.58440000  0.34600000  1.0 -0.6595668152
O  O24  1  0.92000000  0.08440000  0.65400000  1.0 -0.6595668152
O  O25  1  0.85700000  0.93970000  0.95300000  1.0 -0.6693495355
O  O26  1  0.14300000  0.43970000  0.04700000  1.0 -0.6693495355
