# DDEC6 charges by PACMAN v1.1 (https://github.com/mtap-research/PACMAN-charge/)
data_WOHSOB_ASR_pacman
_symmetry_space_group_name_H-M   'P 1'
_cell_length_a   8.49100000
_cell_length_b   19.91500000
_cell_length_c   22.07700000
_cell_angle_alpha   90.00000000
_cell_angle_beta   90.00000000
_cell_angle_gamma   90.00000000
_symmetry_Int_Tables_number   1
_chemical_formula_structural   KCu2H27C38N6O5
_chemical_formula_sum   'K4 Cu8 H108 C152 N24 O20'
_cell_volume   3733.18239641
_cell_formula_units_Z   4
loop_
 _symmetry_equiv_pos_site_id
 _symmetry_equiv_pos_as_xyz
  1  'x, y, z'
loop_
 _atom_site_type_symbol
 _atom_site_label
 _atom_site_symmetry_multiplicity
 _atom_site_fract_x
 _atom_site_fract_y
 _atom_site_fract_z
 _atom_site_occupancy
 _atom_site_charge
K  K1  1  0.85170000  0.99390000  0.34880000  1.0 0.881650035
K  K2  1  0.64830000  0.00610000  0.84880000  1.0 0.881650035
K  K3  1  0.35170000  0.50610000  0.65120000  1.0 0.881650035
K  K4  1  0.14830000  0.49390000  0.15120000  1.0 0.881650035
Cu  Cu1  1  0.99840000  0.92740000  0.59328000  1.0 0.676169072
Cu  Cu2  1  0.50160000  0.07260000  0.09328000  1.0 0.676169072
Cu  Cu3  1  0.49840000  0.57260000  0.40672000  1.0 0.676169072
Cu  Cu4  1  0.00160000  0.42740000  0.90672000  1.0 0.676169072
Cu  Cu5  1  0.30520000  0.83100000  0.63600000  1.0 0.6471180265
Cu  Cu6  1  0.19480000  0.16900000  0.13600000  1.0 0.6449824318
Cu  Cu7  1  0.80520000  0.66900000  0.36400000  1.0 0.6471180265
Cu  Cu8  1  0.69480000  0.33100000  0.86400000  1.0 0.6471180265
H  H1  1  0.15521000  0.83762000  0.53935000  1.0 0.3349065229
H  H2  1  0.34479000  0.16238000  0.03935000  1.0 0.3349065229
H  H3  1  0.65521000  0.66238000  0.46065000  1.0 0.3352190598
H  H4  1  0.84479000  0.33762000  0.96065000  1.0 0.3349065229
H  H5  1  0.16804000  0.05141000  0.44942000  1.0 0.1206388762
H  H6  1  0.33196000  0.94859000  0.94942000  1.0 0.1206388762
H  H7  1  0.66804000  0.44859000  0.55058000  1.0 0.1206388762
H  H8  1  0.83196000  0.55141000  0.05058000  1.0 0.1206388762
H  H9  1  0.35213000  0.02736000  0.37030000  1.0 0.1107244553
H  H10  1  0.14787000  0.97264000  0.87030000  1.0 0.1107244553
H  H11  1  0.85213000  0.47264000  0.62970000  1.0 0.1107244553
H  H12  1  0.64787000  0.52736000  0.12970000  1.0 0.1107244553
H  H13  1  0.35272000  0.91748000  0.33036000  1.0 0.1206388762
H  H14  1  0.14728000  0.08252000  0.83036000  1.0 0.1206388762
H  H15  1  0.85272000  0.58252000  0.66964000  1.0 0.1206388762
H  H16  1  0.64728000  0.41748000  0.16964000  1.0 0.1206388762
H  H17  1  0.22874000  0.82960000  0.38013000  1.0 0.1107244553
H  H18  1  0.27126000  0.17040000  0.88013000  1.0 0.1107244553
H  H19  1  0.72874000  0.67040000  0.61987000  1.0 0.1107244553
H  H20  1  0.77126000  0.32960000  0.11987000  1.0 0.1107244553
H  H21  1  0.05371000  0.85324000  0.45944000  1.0 0.1206388762
H  H22  1  0.44629000  0.14676000  0.95944000  1.0 0.1206388762
H  H23  1  0.55371000  0.64676000  0.54056000  1.0 0.1206388762
H  H24  1  0.94629000  0.35324000  0.04056000  1.0 0.1206388762
H  H25  1  0.66729000  0.11954000  0.53613000  1.0 0.130427663
H  H26  1  0.83271000  0.88046000  0.03613000  1.0 0.130427663
H  H27  1  0.16729000  0.38046000  0.46387000  1.0 0.130427663
H  H28  1  0.33271000  0.61954000  0.96387000  1.0 0.130427663
H  H29  1  0.59160000  0.14369000  0.63585000  1.0 0.1107244553
H  H30  1  0.90840000  0.85631000  0.13585000  1.0 0.1107244553
H  H31  1  0.09160000  0.35631000  0.36415000  1.0 0.1107244553
H  H32  1  0.40840000  0.64369000  0.86415000  1.0 0.1107244553
H  H33  1  0.67802000  0.07531000  0.71991000  1.0 0.1370972364
H  H34  1  0.82198000  0.92469000  0.21991000  1.0 0.1370972364
H  H35  1  0.17802000  0.42469000  0.28009000  1.0 0.1370972364
H  H36  1  0.32198000  0.57531000  0.78009000  1.0 0.1370972364
H  H37  1  0.08444000  0.90563000  0.79151000  1.0 0.130427663
H  H38  1  0.41556000  0.09437000  0.29151000  1.0 0.130427663
H  H39  1  0.58444000  0.59437000  0.20849000  1.0 0.130427663
H  H40  1  0.91556000  0.40563000  0.70849000  1.0 0.130427663
H  H41  1  0.16292000  0.81872000  0.85166000  1.0 0.1021764058
H  H42  1  0.33708000  0.18128000  0.35166000  1.0 0.1021764058
H  H43  1  0.66292000  0.68128000  0.14834000  1.0 0.1021764058
H  H44  1  0.83708000  0.31872000  0.64834000  1.0 0.1021764058
H  H45  1  0.13349000  0.70773000  0.81152000  1.0 0.1021764058
H  H46  1  0.36651000  0.29227000  0.31152000  1.0 0.1021764058
H  H47  1  0.63349000  0.79227000  0.18848000  1.0 0.1021764058
H  H48  1  0.86651000  0.20773000  0.68848000  1.0 0.1021764058
H  H49  1  0.03708000  0.69001000  0.71412000  1.0 0.1107244553
H  H50  1  0.46292000  0.30999000  0.21412000  1.0 0.1107244553
H  H51  1  0.53708000  0.80999000  0.28588000  1.0 0.1107244553
H  H52  1  0.96292000  0.19001000  0.78588000  1.0 0.1107244553
H  H53  1  0.94232000  0.78251000  0.65635000  1.0 0.1206388762
H  H54  1  0.55768000  0.21749000  0.15635000  1.0 0.1206388762
H  H55  1  0.44232000  0.71749000  0.34365000  1.0 0.1206388762
H  H56  1  0.05768000  0.28251000  0.84365000  1.0 0.1206388762
H  H57  1  0.64445000  0.85282000  0.81465000  1.0 0.1370972364
H  H58  1  0.85555000  0.14718000  0.31465000  1.0 0.1370972364
H  H59  1  0.14445000  0.64718000  0.18535000  1.0 0.1370972364
H  H60  1  0.35555000  0.35282000  0.68535000  1.0 0.1370972364
H  H61  1  0.68803000  0.73808000  0.82638000  1.0 0.1206388762
H  H62  1  0.81197000  0.26192000  0.32638000  1.0 0.1206388762
H  H63  1  0.18803000  0.76192000  0.17362000  1.0 0.1206388762
H  H64  1  0.31197000  0.23808000  0.67362000  1.0 0.1206388762
H  H65  1  0.56766000  0.65960000  0.76026000  1.0 0.130427663
H  H66  1  0.93234000  0.34040000  0.26026000  1.0 0.130427663
H  H67  1  0.06766000  0.84040000  0.23974000  1.0 0.130427663
H  H68  1  0.43234000  0.15960000  0.73974000  1.0 0.130427663
H  H69  1  0.22277000  0.01461000  0.74285000  1.0 0.1206388762
H  H70  1  0.27723000  0.98539000  0.24285000  1.0 0.1206388762
H  H71  1  0.72277000  0.48539000  0.25715000  1.0 0.1206388762
H  H72  1  0.77723000  0.51461000  0.75715000  1.0 0.1206388762
H  H73  1  0.12884000  0.11731000  0.70915000  1.0 0.1021764058
H  H74  1  0.37116000  0.88269000  0.20915000  1.0 0.1021764058
H  H75  1  0.62884000  0.38269000  0.29085000  1.0 0.1021764058
H  H76  1  0.87116000  0.61731000  0.79085000  1.0 0.1021764058
H  H77  1  0.15399000  0.15017000  0.60585000  1.0 0.1107244553
H  H78  1  0.34601000  0.84983000  0.10585000  1.0 0.1107244553
H  H79  1  0.65399000  0.34983000  0.39415000  1.0 0.1107244553
H  H80  1  0.84601000  0.65017000  0.89415000  1.0 0.1107244553
H  H81  1  0.28449000  0.08762000  0.53830000  1.0 0.1107244553
H  H82  1  0.21551000  0.91238000  0.03830000  1.0 0.1107244553
H  H83  1  0.78449000  0.41238000  0.46170000  1.0 0.1107244553
H  H84  1  0.71551000  0.58762000  0.96170000  1.0 0.1107244553
H  H85  1  0.35233000  0.97470000  0.56638000  1.0 0.130427663
H  H86  1  0.14767000  0.02530000  0.06638000  1.0 0.130427663
H  H87  1  0.85233000  0.52530000  0.43362000  1.0 0.130427663
H  H88  1  0.64767000  0.47470000  0.93362000  1.0 0.130427663
H  H89  1  0.34669000  0.76380000  0.50384000  1.0 0.1206388762
H  H90  1  0.15331000  0.23620000  0.00384000  1.0 0.1206388762
H  H91  1  0.84669000  0.73620000  0.49616000  1.0 0.1206388762
H  H92  1  0.65331000  0.26380000  0.99616000  1.0 0.1206388762
H  H93  1  0.23816000  0.71108000  0.41463000  1.0 0.1107244553
H  H94  1  0.26184000  0.28892000  0.91463000  1.0 0.1107244553
H  H95  1  0.73816000  0.78892000  0.58537000  1.0 0.1107244553
H  H96  1  0.76184000  0.21108000  0.08537000  1.0 0.1107244553
H  H97  1  0.08363000  0.61712000  0.42475000  1.0 0.1107244553
H  H98  1  0.41637000  0.38288000  0.92475000  1.0 0.1107244553
H  H99  1  0.58363000  0.88288000  0.57525000  1.0 0.1107244553
H  H100  1  0.91637000  0.11712000  0.07525000  1.0 0.1107244553
H  H101  1  0.01274000  0.57889000  0.51636000  1.0 0.1107244553
H  H102  1  0.48726000  0.42111000  0.01636000  1.0 0.1107244553
H  H103  1  0.51274000  0.92111000  0.48364000  1.0 0.1107244553
H  H104  1  0.98726000  0.07889000  0.98364000  1.0 0.1107244553
H  H105  1  0.10809000  0.62889000  0.60790000  1.0 0.1206388762
H  H106  1  0.39191000  0.37111000  0.10790000  1.0 0.1206388762
H  H107  1  0.60809000  0.87111000  0.39210000  1.0 0.1206388762
H  H108  1  0.89191000  0.12889000  0.89210000  1.0 0.1206388762
C  C1  1  0.09500000  0.95450000  0.46040000  1.0 0.2287274197
C  C2  1  0.40500000  0.04550000  0.96040000  1.0 0.2287274197
C  C3  1  0.59500000  0.54550000  0.53960000  1.0 0.2287274197
C  C4  1  0.90500000  0.45450000  0.03960000  1.0 0.2287274197
C  C5  1  0.17900000  0.00300000  0.43340000  1.0 -0.1997932598
C  C6  1  0.32100000  0.99700000  0.93340000  1.0 -0.2051881209
C  C7  1  0.67900000  0.49700000  0.56660000  1.0 -0.2051881209
C  C8  1  0.82100000  0.50300000  0.06660000  1.0 -0.2051881209
C  C9  1  0.28500000  0.99100000  0.38700000  1.0 -0.078962866
C  C10  1  0.21500000  0.00900000  0.88700000  1.0 -0.078962866
C  C11  1  0.78500000  0.50900000  0.61300000  1.0 -0.078962866
C  C12  1  0.71500000  0.49100000  0.11300000  1.0 -0.078962866
C  C13  1  0.29300000  0.92600000  0.36600000  1.0 -0.1230148945
C  C14  1  0.20700000  0.07400000  0.86600000  1.0 -0.1230148945
C  C15  1  0.79300000  0.57400000  0.63400000  1.0 -0.1230148945
C  C16  1  0.70700000  0.42600000  0.13400000  1.0 -0.1230148945
C  C17  1  0.21300000  0.87600000  0.39220000  1.0 -0.078962866
C  C18  1  0.28700000  0.12400000  0.89220000  1.0 -0.078962866
C  C19  1  0.71300000  0.62400000  0.60780000  1.0 -0.078962866
C  C20  1  0.78700000  0.37600000  0.10780000  1.0 -0.078962866
C  C21  1  0.11400000  0.88960000  0.43970000  1.0 -0.1997932598
C  C22  1  0.38600000  0.11040000  0.93970000  1.0 -0.1997932598
C  C23  1  0.61400000  0.61040000  0.56030000  1.0 -0.1997932598
C  C24  1  0.88600000  0.38960000  0.06030000  1.0 -0.1997932598
C  C25  1  0.88900000  0.02000000  0.50560000  1.0 0.4243240773
C  C26  1  0.61100000  0.98000000  0.00560000  1.0 0.4243240773
C  C27  1  0.38900000  0.48000000  0.49440000  1.0 0.4243240773
C  C28  1  0.11100000  0.52000000  0.99440000  1.0 0.4243240773
C  C29  1  0.81200000  0.03830000  0.56160000  1.0 0.1021764058
C  C30  1  0.68800000  0.96170000  0.06160000  1.0 0.1021764058
C  C31  1  0.31200000  0.46170000  0.43840000  1.0 0.1021764058
C  C32  1  0.18800000  0.53830000  0.93840000  1.0 0.1021764058
C  C33  1  0.71000000  0.09200000  0.57100000  1.0 -0.1393983439
C  C34  1  0.79000000  0.90800000  0.07100000  1.0 -0.1393983439
C  C35  1  0.21000000  0.40800000  0.42900000  1.0 -0.1393983439
C  C36  1  0.29000000  0.59200000  0.92900000  1.0 -0.1393983439
C  C37  1  0.65900000  0.10300000  0.63000000  1.0 -0.0515239008
C  C38  1  0.84100000  0.89700000  0.13000000  1.0 -0.0515239008
C  C39  1  0.15900000  0.39700000  0.37000000  1.0 -0.0515239008
C  C40  1  0.34100000  0.60300000  0.87000000  1.0 -0.0515239008
C  C41  1  0.70600000  0.06400000  0.67800000  1.0 -0.1393983439
C  C42  1  0.79400000  0.93600000  0.17800000  1.0 -0.1455237821
C  C43  1  0.20600000  0.43600000  0.32200000  1.0 -0.1455237821
C  C44  1  0.29400000  0.56400000  0.82200000  1.0 -0.1393983439
C  C45  1  0.80600000  0.01100000  0.66530000  1.0 0.1487638138
C  C46  1  0.69400000  0.98900000  0.16530000  1.0 0.1487638138
C  C47  1  0.30600000  0.48900000  0.33470000  1.0 0.1487638138
C  C48  1  0.19400000  0.51100000  0.83470000  1.0 0.1487638138
C  C49  1  0.87500000  0.95900000  0.70970000  1.0 0.4394128665
C  C50  1  0.62500000  0.04100000  0.20970000  1.0 0.4394128665
C  C51  1  0.37500000  0.54100000  0.29030000  1.0 0.4394128665
C  C52  1  0.12500000  0.45900000  0.79030000  1.0 0.4394128665
C  C53  1  0.00200000  0.85550000  0.71830000  1.0 0.2393781425
C  C54  1  0.49800000  0.14450000  0.21830000  1.0 0.2393781425
C  C55  1  0.50200000  0.64450000  0.28170000  1.0 0.2287274197
C  C56  1  0.99800000  0.35550000  0.78170000  1.0 0.2393781425
C  C57  1  0.07300000  0.86200000  0.77250000  1.0 -0.1793295138
C  C58  1  0.42700000  0.13800000  0.27250000  1.0 -0.1793295138
C  C59  1  0.57300000  0.63800000  0.22750000  1.0 -0.1793295138
C  C60  1  0.92700000  0.36200000  0.72750000  1.0 -0.1793295138
C  C61  1  0.11900000  0.81100000  0.80800000  1.0 -0.0712639943
C  C62  1  0.38100000  0.18900000  0.30800000  1.0 -0.0712639943
C  C63  1  0.61900000  0.68900000  0.19200000  1.0 -0.0712639943
C  C64  1  0.88100000  0.31100000  0.69200000  1.0 -0.0712639943
C  C65  1  0.10100000  0.74500000  0.78600000  1.0 -0.1279714361
C  C66  1  0.39900000  0.25500000  0.28600000  1.0 -0.1279714361
C  C67  1  0.60100000  0.75500000  0.21400000  1.0 -0.1279714361
C  C68  1  0.89900000  0.24500000  0.71400000  1.0 -0.1279714361
C  C69  1  0.03800000  0.73500000  0.73000000  1.0 -0.0902106817
C  C70  1  0.46200000  0.26500000  0.23000000  1.0 -0.0902106817
C  C71  1  0.53800000  0.76500000  0.27000000  1.0 -0.0902106817
C  C72  1  0.96200000  0.23500000  0.77000000  1.0 -0.0902106817
C  C73  1  0.99100000  0.79100000  0.69660000  1.0 -0.2166995362
C  C74  1  0.50900000  0.20900000  0.19660000  1.0 -0.2166995362
C  C75  1  0.49100000  0.70900000  0.30340000  1.0 -0.2166995362
C  C76  1  0.00900000  0.29100000  0.80340000  1.0 -0.2166995362
C  C77  1  0.31100000  0.98460000  0.65760000  1.0 0.2393781425
C  C78  1  0.18900000  0.01540000  0.15760000  1.0 0.2393781425
C  C79  1  0.81100000  0.51540000  0.34240000  1.0 0.2393781425
C  C80  1  0.68900000  0.48460000  0.84240000  1.0 0.2393781425
C  C81  1  0.23500000  0.02600000  0.69850000  1.0 -0.1793295138
C  C82  1  0.26500000  0.97400000  0.19850000  1.0 -0.1793295138
C  C83  1  0.73500000  0.47400000  0.30150000  1.0 -0.1793295138
C  C84  1  0.76500000  0.52600000  0.80150000  1.0 -0.1793295138
C  C85  1  0.18000000  0.08700000  0.68100000  1.0 -0.0902106817
C  C86  1  0.32000000  0.91300000  0.18100000  1.0 -0.0902106817
C  C87  1  0.68000000  0.41300000  0.31900000  1.0 -0.0902106817
C  C88  1  0.82000000  0.58700000  0.81900000  1.0 -0.0902106817
C  C89  1  0.19700000  0.10800000  0.62100000  1.0 -0.1279714361
C  C90  1  0.30300000  0.89200000  0.12100000  1.0 -0.1279714361
C  C91  1  0.69700000  0.39200000  0.37900000  1.0 -0.1279714361
C  C92  1  0.80300000  0.60800000  0.87900000  1.0 -0.1279714361
C  C93  1  0.26700000  0.06800000  0.58100000  1.0 -0.078962866
C  C94  1  0.23300000  0.93200000  0.08100000  1.0 -0.078962866
C  C95  1  0.76700000  0.43200000  0.41900000  1.0 -0.078962866
C  C96  1  0.73300000  0.56800000  0.91900000  1.0 -0.078962866
C  C97  1  0.31800000  0.00590000  0.59900000  1.0 -0.1997932598
C  C98  1  0.18200000  0.99410000  0.09900000  1.0 -0.1997932598
C  C99  1  0.81800000  0.49410000  0.40100000  1.0 -0.1997932598
C  C100  1  0.68200000  0.50590000  0.90100000  1.0 -0.1997932598
C  C101  1  0.44100000  0.91530000  0.72540000  1.0 0.4292641923
C  C102  1  0.05900000  0.08470000  0.22540000  1.0 0.4292641923
C  C103  1  0.94100000  0.58470000  0.27460000  1.0 0.4292641923
C  C104  1  0.55900000  0.41530000  0.77460000  1.0 0.4292641923
C  C105  1  0.49300000  0.84220000  0.73920000  1.0 0.1487638138
C  C106  1  0.00700000  0.15780000  0.23920000  1.0 0.1487638138
C  C107  1  0.99300000  0.65780000  0.26080000  1.0 0.1487638138
C  C108  1  0.50700000  0.34220000  0.76080000  1.0 0.1487638138
C  C109  1  0.59200000  0.82100000  0.78470000  1.0 -0.1575958312
C  C110  1  0.90800000  0.17900000  0.28470000  1.0 -0.1575958312
C  C111  1  0.09200000  0.67900000  0.21530000  1.0 -0.1575958312
C  C112  1  0.40800000  0.32100000  0.71530000  1.0 -0.1575958312
C  C113  1  0.61900000  0.75200000  0.79200000  1.0 -0.043917536
C  C114  1  0.88100000  0.24800000  0.29200000  1.0 -0.043917536
C  C115  1  0.11900000  0.74800000  0.20800000  1.0 -0.043917536
C  C116  1  0.38100000  0.25200000  0.70800000  1.0 -0.043917536
C  C117  1  0.54800000  0.70900000  0.75250000  1.0 -0.1393983439
C  C118  1  0.95200000  0.29100000  0.25250000  1.0 -0.1393983439
C  C119  1  0.04800000  0.79100000  0.24750000  1.0 -0.1393983439
C  C120  1  0.45200000  0.20900000  0.74750000  1.0 -0.1393983439
C  C121  1  0.45300000  0.73300000  0.70710000  1.0 0.1021764058
C  C122  1  0.04700000  0.26700000  0.20710000  1.0 0.1021764058
C  C123  1  0.95300000  0.76700000  0.29290000  1.0 0.1021764058
C  C124  1  0.54700000  0.23300000  0.79290000  1.0 0.1021764058
C  C125  1  0.36300000  0.69610000  0.66000000  1.0 0.4292641923
C  C126  1  0.13700000  0.30390000  0.16000000  1.0 0.4292641923
C  C127  1  0.86300000  0.80390000  0.34000000  1.0 0.4292641923
C  C128  1  0.63700000  0.19610000  0.84000000  1.0 0.4292641923
C  C129  1  0.24300000  0.70180000  0.56320000  1.0 0.2393781425
C  C130  1  0.25700000  0.29820000  0.06320000  1.0 0.2393781425
C  C131  1  0.74300000  0.79820000  0.43680000  1.0 0.2393781425
C  C132  1  0.75700000  0.20180000  0.93680000  1.0 0.2393781425
C  C133  1  0.27600000  0.72510000  0.50780000  1.0 -0.1997932598
C  C134  1  0.22400000  0.27490000  0.00780000  1.0 -0.1997932598
C  C135  1  0.77600000  0.77490000  0.49220000  1.0 -0.1997932598
C  C136  1  0.72400000  0.22510000  0.99220000  1.0 -0.1997932598
C  C137  1  0.21500000  0.69500000  0.45550000  1.0 -0.0902106817
C  C138  1  0.28500000  0.30500000  0.95550000  1.0 -0.0902106817
C  C139  1  0.71500000  0.80500000  0.54450000  1.0 -0.0902106817
C  C140  1  0.78500000  0.19500000  0.04450000  1.0 -0.0902106817
C  C141  1  0.12100000  0.64000000  0.46090000  1.0 -0.1279714361
C  C142  1  0.37900000  0.36000000  0.96090000  1.0 -0.1279714361
C  C143  1  0.62100000  0.86000000  0.53910000  1.0 -0.1279714361
C  C144  1  0.87900000  0.14000000  0.03910000  1.0 -0.1279714361
C  C145  1  0.08300000  0.61900000  0.51600000  1.0 -0.078962866
C  C146  1  0.41700000  0.38100000  0.01600000  1.0 -0.078962866
C  C147  1  0.58300000  0.88100000  0.48400000  1.0 -0.078962866
C  C148  1  0.91700000  0.11900000  0.98400000  1.0 -0.078962866
C  C149  1  0.13900000  0.64700000  0.56750000  1.0 -0.1664980457
C  C150  1  0.36100000  0.35300000  0.06750000  1.0 -0.1664980457
C  C151  1  0.63900000  0.85300000  0.43250000  1.0 -0.1664980457
C  C152  1  0.86100000  0.14700000  0.93250000  1.0 -0.1664980457
N  N1  1  0.99300000  0.96930000  0.51100000  1.0 -0.4879891232
N  N2  1  0.50700000  0.03070000  0.01100000  1.0 -0.4879891232
N  N3  1  0.49300000  0.53070000  0.48900000  1.0 -0.4879891232
N  N4  1  0.00700000  0.46930000  0.98900000  1.0 -0.4879891232
N  N5  1  0.85500000  0.00030000  0.60940000  1.0 -0.2836403281
N  N6  1  0.64500000  0.99970000  0.10940000  1.0 -0.2836403281
N  N7  1  0.35500000  0.49970000  0.39060000  1.0 -0.2836403281
N  N8  1  0.14500000  0.50030000  0.89060000  1.0 -0.2836403281
N  N9  1  0.94600000  0.90860000  0.68140000  1.0 -0.4593838707
N  N10  1  0.55400000  0.09140000  0.18140000  1.0 -0.4593838707
N  N11  1  0.44600000  0.59140000  0.31860000  1.0 -0.4593838707
N  N12  1  0.05400000  0.40860000  0.81860000  1.0 -0.4593838707
N  N13  1  0.36300000  0.92100000  0.67360000  1.0 -0.4403995231
N  N14  1  0.13700000  0.07900000  0.17360000  1.0 -0.4403995231
N  N15  1  0.86300000  0.57900000  0.32640000  1.0 -0.4403995231
N  N16  1  0.63700000  0.42100000  0.82640000  1.0 -0.4403995231
N  N17  1  0.43200000  0.80050000  0.70120000  1.0 -0.2866135419
N  N18  1  0.06800000  0.19950000  0.20120000  1.0 -0.2866135419
N  N19  1  0.93200000  0.69950000  0.29880000  1.0 -0.2866135419
N  N20  1  0.56800000  0.30050000  0.79880000  1.0 -0.2866135419
N  N21  1  0.31100000  0.73210000  0.61480000  1.0 -0.4342082844
N  N22  1  0.18900000  0.26790000  0.11480000  1.0 -0.4342082844
N  N23  1  0.81100000  0.76790000  0.38520000  1.0 -0.4342082844
N  N24  1  0.68900000  0.23210000  0.88520000  1.0 -0.4342082844
O  O1  1  0.15400000  0.85960000  0.57980000  1.0 -0.7606736527
O  O2  1  0.34600000  0.14040000  0.07980000  1.0 -0.7606736527
O  O3  1  0.65400000  0.64040000  0.42020000  1.0 -0.7606736527
O  O4  1  0.84600000  0.35960000  0.92020000  1.0 -0.7606736527
O  O5  1  0.85700000  0.05220000  0.45780000  1.0 -0.5795815096
O  O6  1  0.64300000  0.94780000  0.95780000  1.0 -0.5795815096
O  O7  1  0.35700000  0.44780000  0.54220000  1.0 -0.5795815096
O  O8  1  0.14300000  0.55220000  0.04220000  1.0 -0.5795815096
O  O9  1  0.84900000  0.96910000  0.76360000  1.0 -0.5333549634
O  O10  1  0.65100000  0.03090000  0.26360000  1.0 -0.5333549634
O  O11  1  0.34900000  0.53090000  0.23640000  1.0 -0.5333549634
O  O12  1  0.15100000  0.46910000  0.73640000  1.0 -0.5333549634
O  O13  1  0.47700000  0.95900000  0.76320000  1.0 -0.5423244492
O  O14  1  0.02300000  0.04100000  0.26320000  1.0 -0.5423244492
O  O15  1  0.97700000  0.54100000  0.23680000  1.0 -0.5423244492
O  O16  1  0.52300000  0.45900000  0.73680000  1.0 -0.5423244492
O  O17  1  0.35400000  0.63310000  0.66590000  1.0 -0.5795815096
O  O18  1  0.14600000  0.36690000  0.16590000  1.0 -0.5795815096
O  O19  1  0.85400000  0.86690000  0.33410000  1.0 -0.5795815096
O  O20  1  0.64600000  0.13310000  0.83410000  1.0 -0.5795815096
