# DDEC6 charges by PACMAN v1.1 (https://github.com/mtap-research/PACMAN-charge/)
data_WOJJOV_ASR_pacman
_symmetry_space_group_name_H-M   'P 1'
_cell_length_a   21.10120000
_cell_length_b   21.10120000
_cell_length_c   6.60950000
_cell_angle_alpha   90.00000000
_cell_angle_beta   90.00000000
_cell_angle_gamma   90.00000000
_symmetry_Int_Tables_number   1
_chemical_formula_structural   AlH7C12O5
_chemical_formula_sum   'Al8 H56 C96 O40'
_cell_volume   2942.95020960
_cell_formula_units_Z   8
loop_
 _symmetry_equiv_pos_site_id
 _symmetry_equiv_pos_as_xyz
  1  'x, y, z'
loop_
 _atom_site_type_symbol
 _atom_site_label
 _atom_site_symmetry_multiplicity
 _atom_site_fract_x
 _atom_site_fract_y
 _atom_site_fract_z
 _atom_site_occupancy
 _atom_site_charge
Al  Al1  1  0.25000000  0.75000000  0.00000000  1.0 1.6716508087
Al  Al2  1  0.75000000  0.25000000  0.00000000  1.0 1.6716508087
Al  Al3  1  0.75000000  0.75000000  0.00000000  1.0 1.6716508087
Al  Al4  1  0.25000000  0.25000000  0.00000000  1.0 1.6716508087
Al  Al5  1  0.25000000  0.75000000  0.50000000  1.0 1.5372705873
Al  Al6  1  0.75000000  0.25000000  0.50000000  1.0 1.5372705873
Al  Al7  1  0.75000000  0.75000000  0.50000000  1.0 1.5372705873
Al  Al8  1  0.25000000  0.25000000  0.50000000  1.0 1.5372705873
H  H1  1  0.06000000  0.21000000  0.53000000  1.0 0.123125058
H  H2  1  0.12000000  0.32200000  0.93900000  1.0 0.0779968918
H  H3  1  0.06000000  0.37000000  0.65000000  1.0 0.0965859409
H  H4  1  0.94000000  0.79000000  0.53000000  1.0 0.123125058
H  H5  1  0.88000000  0.67800000  0.93900000  1.0 0.0779968918
H  H6  1  0.94000000  0.63000000  0.65000000  1.0 0.0965859409
H  H7  1  0.29000000  0.56000000  0.53000000  1.0 0.123125058
H  H8  1  0.17800000  0.62000000  0.93900000  1.0 0.0779968918
H  H9  1  0.13000000  0.56000000  0.65000000  1.0 0.0965859409
H  H10  1  0.71000000  0.44000000  0.53000000  1.0 0.123125058
H  H11  1  0.82200000  0.38000000  0.93900000  1.0 0.0779968918
H  H12  1  0.87000000  0.44000000  0.65000000  1.0 0.0965859409
H  H13  1  0.44000000  0.71000000  0.47000000  1.0 0.123125058
H  H14  1  0.38000000  0.82200000  0.06100000  1.0 0.0779968918
H  H15  1  0.44000000  0.87000000  0.35000000  1.0 0.0965859409
H  H16  1  0.56000000  0.29000000  0.47000000  1.0 0.123125058
H  H17  1  0.62000000  0.17800000  0.06100000  1.0 0.0779968918
H  H18  1  0.56000000  0.13000000  0.35000000  1.0 0.0965859409
H  H19  1  0.21000000  0.06000000  0.47000000  1.0 0.123125058
H  H20  1  0.32200000  0.12000000  0.06100000  1.0 0.0779968918
H  H21  1  0.37000000  0.06000000  0.35000000  1.0 0.0965859409
H  H22  1  0.79000000  0.94000000  0.47000000  1.0 0.123125058
H  H23  1  0.67800000  0.88000000  0.06100000  1.0 0.0779968918
H  H24  1  0.63000000  0.94000000  0.35000000  1.0 0.0965859409
H  H25  1  0.44000000  0.29000000  0.47000000  1.0 0.123125058
H  H26  1  0.38000000  0.17800000  0.06100000  1.0 0.0779968918
H  H27  1  0.44000000  0.13000000  0.35000000  1.0 0.0965859409
H  H28  1  0.56000000  0.71000000  0.47000000  1.0 0.123125058
H  H29  1  0.62000000  0.82200000  0.06100000  1.0 0.0779968918
H  H30  1  0.56000000  0.87000000  0.35000000  1.0 0.0965859409
H  H31  1  0.21000000  0.94000000  0.47000000  1.0 0.123125058
H  H32  1  0.32200000  0.88000000  0.06100000  1.0 0.0779968918
H  H33  1  0.37000000  0.94000000  0.35000000  1.0 0.0965859409
H  H34  1  0.79000000  0.06000000  0.47000000  1.0 0.123125058
H  H35  1  0.67800000  0.12000000  0.06100000  1.0 0.0779968918
H  H36  1  0.63000000  0.06000000  0.35000000  1.0 0.0965859409
H  H37  1  0.06000000  0.79000000  0.53000000  1.0 0.123125058
H  H38  1  0.12000000  0.67800000  0.93900000  1.0 0.0779968918
H  H39  1  0.06000000  0.63000000  0.65000000  1.0 0.0965859409
H  H40  1  0.94000000  0.21000000  0.53000000  1.0 0.123125058
H  H41  1  0.88000000  0.32200000  0.93900000  1.0 0.0779968918
H  H42  1  0.94000000  0.37000000  0.65000000  1.0 0.0965859409
H  H43  1  0.29000000  0.44000000  0.53000000  1.0 0.123125058
H  H44  1  0.17800000  0.38000000  0.93900000  1.0 0.0779968918
H  H45  1  0.13000000  0.44000000  0.65000000  1.0 0.0965859409
H  H46  1  0.71000000  0.56000000  0.53000000  1.0 0.123125058
H  H47  1  0.82200000  0.62000000  0.93900000  1.0 0.0779968918
H  H48  1  0.87000000  0.56000000  0.65000000  1.0 0.0965859409
H  H49  1  0.30470000  0.19530000  0.28500000  1.0 0.3846067902
H  H50  1  0.69530000  0.80470000  0.28500000  1.0 0.3846067902
H  H51  1  0.30470000  0.80470000  0.28500000  1.0 0.3846067902
H  H52  1  0.69530000  0.19530000  0.28500000  1.0 0.3846067902
H  H53  1  0.19530000  0.69530000  0.71500000  1.0 0.3846067902
H  H54  1  0.80470000  0.30470000  0.71500000  1.0 0.3846067902
H  H55  1  0.19530000  0.30470000  0.71500000  1.0 0.3846067902
H  H56  1  0.80470000  0.69530000  0.71500000  1.0 0.3846067902
C  C1  1  0.13900000  0.25300000  0.27000000  1.0 0.6368490871
C  C2  1  0.06800000  0.25700000  0.26000000  1.0 -0.0809257013
C  C3  1  0.03400000  0.28900000  0.09700000  1.0 0.0538589139
C  C4  1  0.03400000  0.23000000  0.41000000  1.0 -0.1071618754
C  C5  1  0.06800000  0.32200000  0.93900000  1.0 -0.1343272297
C  C6  1  0.03400000  0.35000000  0.77200000  1.0 -0.1158012297
C  C7  1  0.86100000  0.74700000  0.27000000  1.0 0.6368490871
C  C8  1  0.93200000  0.74300000  0.26000000  1.0 -0.0809257013
C  C9  1  0.96600000  0.71100000  0.09700000  1.0 0.0538589139
C  C10  1  0.96600000  0.77000000  0.41000000  1.0 -0.1071618754
C  C11  1  0.93200000  0.67800000  0.93900000  1.0 -0.1343272297
C  C12  1  0.96600000  0.65000000  0.77200000  1.0 -0.1158012297
C  C13  1  0.24700000  0.63900000  0.27000000  1.0 0.6368490871
C  C14  1  0.24300000  0.56800000  0.26000000  1.0 -0.0809257013
C  C15  1  0.21100000  0.53400000  0.09700000  1.0 0.0538589139
C  C16  1  0.27000000  0.53400000  0.41000000  1.0 -0.1071618754
C  C17  1  0.17800000  0.56800000  0.93900000  1.0 -0.1343272297
C  C18  1  0.15000000  0.53400000  0.77200000  1.0 -0.1158012297
C  C19  1  0.75300000  0.36100000  0.27000000  1.0 0.6368490871
C  C20  1  0.75700000  0.43200000  0.26000000  1.0 -0.0809257013
C  C21  1  0.78900000  0.46600000  0.09700000  1.0 0.0538589139
C  C22  1  0.73000000  0.46600000  0.41000000  1.0 -0.1071618754
C  C23  1  0.82200000  0.43200000  0.93900000  1.0 -0.1343272297
C  C24  1  0.85000000  0.46600000  0.77200000  1.0 -0.1158012297
C  C25  1  0.36100000  0.75300000  0.73000000  1.0 0.6368490871
C  C26  1  0.43200000  0.75700000  0.74000000  1.0 -0.0809257013
C  C27  1  0.46600000  0.78900000  0.90300000  1.0 0.0538589139
C  C28  1  0.46600000  0.73000000  0.59000000  1.0 -0.1071618754
C  C29  1  0.43200000  0.82200000  0.06100000  1.0 -0.1343272297
C  C30  1  0.46600000  0.85000000  0.22800000  1.0 -0.1158012297
C  C31  1  0.63900000  0.24700000  0.73000000  1.0 0.6368490871
C  C32  1  0.56800000  0.24300000  0.74000000  1.0 -0.0809257013
C  C33  1  0.53400000  0.21100000  0.90300000  1.0 0.0538589139
C  C34  1  0.53400000  0.27000000  0.59000000  1.0 -0.1071618754
C  C35  1  0.56800000  0.17800000  0.06100000  1.0 -0.1343272297
C  C36  1  0.53400000  0.15000000  0.22800000  1.0 -0.1158012297
C  C37  1  0.25300000  0.13900000  0.73000000  1.0 0.6368490871
C  C38  1  0.25700000  0.06800000  0.74000000  1.0 -0.0809257013
C  C39  1  0.28900000  0.03400000  0.90300000  1.0 0.0538589139
C  C40  1  0.23000000  0.03400000  0.59000000  1.0 -0.1071618754
C  C41  1  0.32200000  0.06800000  0.06100000  1.0 -0.1343272297
C  C42  1  0.35000000  0.03400000  0.22800000  1.0 -0.1158012297
C  C43  1  0.74700000  0.86100000  0.73000000  1.0 0.6368490871
C  C44  1  0.74300000  0.93200000  0.74000000  1.0 -0.0809257013
C  C45  1  0.71100000  0.96600000  0.90300000  1.0 0.0538589139
C  C46  1  0.77000000  0.96600000  0.59000000  1.0 -0.1071618754
C  C47  1  0.67800000  0.93200000  0.06100000  1.0 -0.1343272297
C  C48  1  0.65000000  0.96600000  0.22800000  1.0 -0.1158012297
C  C49  1  0.36100000  0.24700000  0.73000000  1.0 0.6368490871
C  C50  1  0.43200000  0.24300000  0.74000000  1.0 -0.0809257013
C  C51  1  0.46600000  0.21100000  0.90300000  1.0 0.0538589139
C  C52  1  0.46600000  0.27000000  0.59000000  1.0 -0.1071618754
C  C53  1  0.43200000  0.17800000  0.06100000  1.0 -0.1343272297
C  C54  1  0.46600000  0.15000000  0.22800000  1.0 -0.1158012297
C  C55  1  0.63900000  0.75300000  0.73000000  1.0 0.6368490871
C  C56  1  0.56800000  0.75700000  0.74000000  1.0 -0.0809257013
C  C57  1  0.53400000  0.78900000  0.90300000  1.0 0.0538589139
C  C58  1  0.53400000  0.73000000  0.59000000  1.0 -0.1071618754
C  C59  1  0.56800000  0.82200000  0.06100000  1.0 -0.1343272297
C  C60  1  0.53400000  0.85000000  0.22800000  1.0 -0.1158012297
C  C61  1  0.25300000  0.86100000  0.73000000  1.0 0.6368490871
C  C62  1  0.25700000  0.93200000  0.74000000  1.0 -0.0809257013
C  C63  1  0.28900000  0.96600000  0.90300000  1.0 0.0538589139
C  C64  1  0.23000000  0.96600000  0.59000000  1.0 -0.1071618754
C  C65  1  0.32200000  0.93200000  0.06100000  1.0 -0.1343272297
C  C66  1  0.35000000  0.96600000  0.22800000  1.0 -0.1158012297
C  C67  1  0.74700000  0.13900000  0.73000000  1.0 0.6368490871
C  C68  1  0.74300000  0.06800000  0.74000000  1.0 -0.0809257013
C  C69  1  0.71100000  0.03400000  0.90300000  1.0 0.0538589139
C  C70  1  0.77000000  0.03400000  0.59000000  1.0 -0.1071618754
C  C71  1  0.67800000  0.06800000  0.06100000  1.0 -0.1343272297
C  C72  1  0.65000000  0.03400000  0.22800000  1.0 -0.1158012297
C  C73  1  0.13900000  0.74700000  0.27000000  1.0 0.6368490871
C  C74  1  0.06800000  0.74300000  0.26000000  1.0 -0.0809257013
C  C75  1  0.03400000  0.71100000  0.09700000  1.0 0.0538589139
C  C76  1  0.03400000  0.77000000  0.41000000  1.0 -0.1071618754
C  C77  1  0.06800000  0.67800000  0.93900000  1.0 -0.1343272297
C  C78  1  0.03400000  0.65000000  0.77200000  1.0 -0.1158012297
C  C79  1  0.86100000  0.25300000  0.27000000  1.0 0.6368490871
C  C80  1  0.93200000  0.25700000  0.26000000  1.0 -0.0809257013
C  C81  1  0.96600000  0.28900000  0.09700000  1.0 0.0538589139
C  C82  1  0.96600000  0.23000000  0.41000000  1.0 -0.1071618754
C  C83  1  0.93200000  0.32200000  0.93900000  1.0 -0.1343272297
C  C84  1  0.96600000  0.35000000  0.77200000  1.0 -0.1158012297
C  C85  1  0.24700000  0.36100000  0.27000000  1.0 0.6368490871
C  C86  1  0.24300000  0.43200000  0.26000000  1.0 -0.0809257013
C  C87  1  0.21100000  0.46600000  0.09700000  1.0 0.0538589139
C  C88  1  0.27000000  0.46600000  0.41000000  1.0 -0.1071618754
C  C89  1  0.17800000  0.43200000  0.93900000  1.0 -0.1343272297
C  C90  1  0.15000000  0.46600000  0.77200000  1.0 -0.1158012297
C  C91  1  0.75300000  0.63900000  0.27000000  1.0 0.6368490871
C  C92  1  0.75700000  0.56800000  0.26000000  1.0 -0.0809257013
C  C93  1  0.78900000  0.53400000  0.09700000  1.0 0.0538589139
C  C94  1  0.73000000  0.53400000  0.41000000  1.0 -0.1071618754
C  C95  1  0.82200000  0.56800000  0.93900000  1.0 -0.1343272297
C  C96  1  0.85000000  0.53400000  0.77200000  1.0 -0.1158012297
O  O1  1  0.17100000  0.24800000  0.11700000  1.0 -0.5798140649
O  O2  1  0.16500000  0.25100000  0.44700000  1.0 -0.5798140649
O  O3  1  0.82900000  0.75200000  0.11700000  1.0 -0.5798140649
O  O4  1  0.83500000  0.74900000  0.44700000  1.0 -0.5798140649
O  O5  1  0.25200000  0.67100000  0.11700000  1.0 -0.5798140649
O  O6  1  0.24900000  0.66500000  0.44700000  1.0 -0.5798140649
O  O7  1  0.74800000  0.32900000  0.11700000  1.0 -0.5798140649
O  O8  1  0.75100000  0.33500000  0.44700000  1.0 -0.5798140649
O  O9  1  0.32900000  0.74800000  0.88300000  1.0 -0.5798140649
O  O10  1  0.33500000  0.75100000  0.55300000  1.0 -0.5798140649
O  O11  1  0.67100000  0.25200000  0.88300000  1.0 -0.5798140649
O  O12  1  0.66500000  0.24900000  0.55300000  1.0 -0.5798140649
O  O13  1  0.24800000  0.17100000  0.88300000  1.0 -0.5798140649
O  O14  1  0.25100000  0.16500000  0.55300000  1.0 -0.5798140649
O  O15  1  0.75200000  0.82900000  0.88300000  1.0 -0.5798140649
O  O16  1  0.74900000  0.83500000  0.55300000  1.0 -0.5798140649
O  O17  1  0.32900000  0.25200000  0.88300000  1.0 -0.5798140649
O  O18  1  0.33500000  0.24900000  0.55300000  1.0 -0.5798140649
O  O19  1  0.67100000  0.74800000  0.88300000  1.0 -0.5798140649
O  O20  1  0.66500000  0.75100000  0.55300000  1.0 -0.5798140649
O  O21  1  0.24800000  0.82900000  0.88300000  1.0 -0.5798140649
O  O22  1  0.25100000  0.83500000  0.55300000  1.0 -0.5798140649
O  O23  1  0.75200000  0.17100000  0.88300000  1.0 -0.5798140649
O  O24  1  0.74900000  0.16500000  0.55300000  1.0 -0.5798140649
O  O25  1  0.17100000  0.75200000  0.11700000  1.0 -0.5798140649
O  O26  1  0.16500000  0.74900000  0.44700000  1.0 -0.5798140649
O  O27  1  0.82900000  0.24800000  0.11700000  1.0 -0.5798140649
O  O28  1  0.83500000  0.25100000  0.44700000  1.0 -0.5798140649
O  O29  1  0.25200000  0.32900000  0.11700000  1.0 -0.5798140649
O  O30  1  0.24900000  0.33500000  0.44700000  1.0 -0.5798140649
O  O31  1  0.74800000  0.67100000  0.11700000  1.0 -0.5798140649
O  O32  1  0.75100000  0.66500000  0.44700000  1.0 -0.5798140649
O  O33  1  0.28100000  0.21900000  0.28500000  1.0 -0.77021094
O  O34  1  0.71900000  0.78100000  0.28500000  1.0 -0.77021094
O  O35  1  0.28100000  0.78100000  0.28500000  1.0 -0.77021094
O  O36  1  0.71900000  0.21900000  0.28500000  1.0 -0.77021094
O  O37  1  0.21900000  0.71900000  0.71500000  1.0 -0.77021094
O  O38  1  0.78100000  0.28100000  0.71500000  1.0 -0.77021094
O  O39  1  0.21900000  0.28100000  0.71500000  1.0 -0.77021094
O  O40  1  0.78100000  0.71900000  0.71500000  1.0 -0.77021094
