# DDEC6 charges by PACMAN v1.1 (https://github.com/mtap-research/PACMAN-charge/)
data_WOJNAL_ASR_pacman
_symmetry_space_group_name_H-M   'P 1'
_cell_length_a   13.66020000
_cell_length_b   13.66020000
_cell_length_c   11.77810000
_cell_angle_alpha   73.42280000
_cell_angle_beta   106.57700000
_cell_angle_gamma   118.99100000
_symmetry_Int_Tables_number   1
_chemical_formula_structural   Ag3H20C18N10O
_chemical_formula_sum   'Ag6 H40 C36 N20 O2'
_cell_volume   1813.95351271
_cell_formula_units_Z   2
loop_
 _symmetry_equiv_pos_site_id
 _symmetry_equiv_pos_as_xyz
  1  'x, y, z'
loop_
 _atom_site_type_symbol
 _atom_site_label
 _atom_site_symmetry_multiplicity
 _atom_site_fract_x
 _atom_site_fract_y
 _atom_site_fract_z
 _atom_site_occupancy
 _atom_site_charge
Ag  Ag1  1  0.67066000  0.49480000  0.26537000  1.0 0.3318171661
Ag  Ag2  1  0.49480000  0.67066000  0.23463000  1.0 0.3318171661
Ag  Ag3  1  0.32934000  0.50520000  0.73463000  1.0 0.3318171661
Ag  Ag4  1  0.50520000  0.32934000  0.76537000  1.0 0.3318171661
Ag  Ag5  1  0.50000000  0.00000000  0.50000000  1.0 0.2700157102
Ag  Ag6  1  0.00000000  0.50000000  0.00000000  1.0 0.2700157102
H  H1  1  0.72900000  0.71500000  0.29900000  1.0 0.2002321381
H  H2  1  0.71500000  0.72900000  0.20100000  1.0 0.2002321381
H  H3  1  0.27100000  0.28500000  0.70100000  1.0 0.2002321381
H  H4  1  0.28500000  0.27100000  0.79900000  1.0 0.2002321381
H  H5  1  0.61170000  0.50430000  0.58500000  1.0 0.2186204728
H  H6  1  0.50430000  0.61170000  0.91500000  1.0 0.2186204728
H  H7  1  0.38830000  0.49570000  0.41500000  1.0 0.2186204728
H  H8  1  0.49570000  0.38830000  0.08500000  1.0 0.2186204728
H  H9  1  0.68280000  0.53700000  0.50700000  1.0 0.226488867
H  H10  1  0.53700000  0.68280000  0.99300000  1.0 0.226488867
H  H11  1  0.31720000  0.46300000  0.49300000  1.0 0.226488867
H  H12  1  0.46300000  0.31720000  0.00700000  1.0 0.226488867
H  H13  1  0.37920000  0.11280000  0.68700000  1.0 0.2103739541
H  H14  1  0.11280000  0.37920000  0.81300000  1.0 0.2103739541
H  H15  1  0.62080000  0.88720000  0.31300000  1.0 0.2103739541
H  H16  1  0.88720000  0.62080000  0.18700000  1.0 0.2103739541
H  H17  1  0.37470000  0.04730000  0.61900000  1.0 0.2103739541
H  H18  1  0.04730000  0.37470000  0.88100000  1.0 0.2103739541
H  H19  1  0.62530000  0.95270000  0.38100000  1.0 0.2103739541
H  H20  1  0.95270000  0.62530000  0.11900000  1.0 0.2103739541
H  H21  1  0.79230000  0.34610000  0.38260000  1.0 0.1082648763
H  H22  1  0.34610000  0.79230000  0.11740000  1.0 0.1082648763
H  H23  1  0.20770000  0.65390000  0.61740000  1.0 0.1082648763
H  H24  1  0.65390000  0.20770000  0.88260000  1.0 0.1082648763
H  H25  1  0.86120000  0.30540000  0.24930000  1.0 0.1047748338
H  H26  1  0.30540000  0.86120000  0.25070000  1.0 0.1047748338
H  H27  1  0.13880000  0.69460000  0.75070000  1.0 0.1047748338
H  H28  1  0.69460000  0.13880000  0.74930000  1.0 0.1047748338
H  H29  1  0.73570000  0.17350000  0.12360000  1.0 0.1082648763
H  H30  1  0.17350000  0.73570000  0.37640000  1.0 0.1082648763
H  H31  1  0.26430000  0.82650000  0.87640000  1.0 0.1082648763
H  H32  1  0.82650000  0.26430000  0.62360000  1.0 0.1082648763
H  H33  1  0.54080000  0.08040000  0.12980000  1.0 0.1047748338
H  H34  1  0.08040000  0.54080000  0.37020000  1.0 0.1082648763
H  H35  1  0.45920000  0.91960000  0.87020000  1.0 0.1082648763
H  H36  1  0.91960000  0.45920000  0.62980000  1.0 0.1047748338
H  H37  1  0.47160000  0.11640000  0.26710000  1.0 0.1082648763
H  H38  1  0.11640000  0.47160000  0.23290000  1.0 0.1082648763
H  H39  1  0.52840000  0.88360000  0.73290000  1.0 0.1082648763
H  H40  1  0.88360000  0.52840000  0.76710000  1.0 0.1082648763
C  C1  1  0.58740000  0.38400000  0.52080000  1.0 0.5609729078
C  C2  1  0.38400000  0.58740000  0.97920000  1.0 0.5609729078
C  C3  1  0.41260000  0.61600000  0.47920000  1.0 0.5609729078
C  C4  1  0.61600000  0.41260000  0.02080000  1.0 0.5609729078
C  C5  1  0.47864000  0.19336000  0.57490000  1.0 0.5535624113
C  C6  1  0.19336000  0.47864000  0.92510000  1.0 0.5535624113
C  C7  1  0.52136000  0.80664000  0.42510000  1.0 0.5535624113
C  C8  1  0.80664000  0.52136000  0.07490000  1.0 0.5535624113
C  C9  1  0.58382000  0.25780000  0.42550000  1.0 0.359752455
C  C10  1  0.25780000  0.58382000  0.07450000  1.0 0.359752455
C  C11  1  0.41618000  0.74220000  0.57450000  1.0 0.359752455
C  C12  1  0.74220000  0.41618000  0.92550000  1.0 0.359752455
C  C13  1  0.62549000  0.23431000  0.33800000  1.0 -0.0061934304
C  C14  1  0.23431000  0.62549000  0.16200000  1.0 -0.0061934304
C  C15  1  0.37451000  0.76569000  0.66200000  1.0 -0.0061934304
C  C16  1  0.76569000  0.37451000  0.83800000  1.0 -0.0061934304
C  C17  1  0.74165000  0.29155000  0.33240000  1.0 -0.1762992096
C  C18  1  0.29155000  0.74165000  0.16760000  1.0 -0.1762992096
C  C19  1  0.25835000  0.70845000  0.66760000  1.0 -0.1762992096
C  C20  1  0.70845000  0.25835000  0.83240000  1.0 -0.1762992096
C  C21  1  0.78222000  0.26778000  0.25270000  1.0 -0.1019931722
C  C22  1  0.26778000  0.78222000  0.24730000  1.0 -0.1019931722
C  C23  1  0.21778000  0.73222000  0.74730000  1.0 -0.1019931722
C  C24  1  0.73222000  0.21778000  0.75270000  1.0 -0.1019931722
C  C25  1  0.70758000  0.18922000  0.17790000  1.0 -0.1206336234
C  C26  1  0.18922000  0.70758000  0.32210000  1.0 -0.1206336234
C  C27  1  0.29242000  0.81078000  0.82210000  1.0 -0.1206336234
C  C28  1  0.81078000  0.29242000  0.67790000  1.0 -0.1206336234
C  C29  1  0.59157000  0.13323000  0.18190000  1.0 -0.113211206
C  C30  1  0.13323000  0.59157000  0.31810000  1.0 -0.113211206
C  C31  1  0.40843000  0.86677000  0.81810000  1.0 -0.113211206
C  C32  1  0.86677000  0.40843000  0.68190000  1.0 -0.113211206
C  C33  1  0.55032000  0.15508000  0.26300000  1.0 -0.1873565901
C  C34  1  0.15508000  0.55032000  0.23700000  1.0 -0.1873565901
C  C35  1  0.44968000  0.84492000  0.73700000  1.0 -0.1873565901
C  C36  1  0.84492000  0.44968000  0.76300000  1.0 -0.1873565901
N  N1  1  0.61847000  0.36607000  0.43140000  1.0 -0.4791116182
N  N2  1  0.36607000  0.61847000  0.06860000  1.0 -0.4791116182
N  N3  1  0.38153000  0.63393000  0.56860000  1.0 -0.4791116182
N  N4  1  0.63393000  0.38153000  0.93140000  1.0 -0.4791116182
N  N5  1  0.51614000  0.16870000  0.49560000  1.0 -0.460605434
N  N6  1  0.16870000  0.51614000  0.00440000  1.0 -0.460605434
N  N7  1  0.48386000  0.83130000  0.50440000  1.0 -0.460605434
N  N8  1  0.83130000  0.48386000  0.99560000  1.0 -0.460605434
N  N9  1  0.51676000  0.29998000  0.59300000  1.0 -0.5143086825
N  N10  1  0.29998000  0.51676000  0.90700000  1.0 -0.5143086825
N  N11  1  0.48324000  0.70002000  0.40700000  1.0 -0.5143086825
N  N12  1  0.70002000  0.48324000  0.09300000  1.0 -0.5143086825
N  N13  1  0.62834000  0.49066000  0.53440000  1.0 -0.5437993918
N  N14  1  0.49066000  0.62834000  0.96560000  1.0 -0.5458547388
N  N15  1  0.37166000  0.50934000  0.46560000  1.0 -0.5458547388
N  N16  1  0.50934000  0.37166000  0.03440000  1.0 -0.5458547388
N  N17  1  0.40487000  0.10693000  0.63870000  1.0 -0.5437993918
N  N18  1  0.10693000  0.40487000  0.86130000  1.0 -0.5458547388
N  N19  1  0.59513000  0.89307000  0.36130000  1.0 -0.5458547388
N  N20  1  0.89307000  0.59513000  0.13870000  1.0 -0.5458547388
O  O1  1  0.68160000  0.68160000  0.25000000  1.0 -0.5857934568
O  O2  1  0.31840000  0.31840000  0.75000000  1.0 -0.5857934568
