# DDEC6 charges by PACMAN v1.1 (https://github.com/mtap-research/PACMAN-charge/)
data_WOLRIZ_ASR_pacman
_symmetry_space_group_name_H-M   'P 1'
_cell_length_a   18.33680000
_cell_length_b   18.33680000
_cell_length_c   18.33680000
_cell_angle_alpha   129.99400000
_cell_angle_beta   129.99400000
_cell_angle_gamma   73.41590000
_symmetry_Int_Tables_number   1
_chemical_formula_structural   Cu12H32C58N32Cl9O20
_chemical_formula_sum   'Cu12 H32 C58 N32 Cl9 O20'
_cell_volume   3532.09694349
_cell_formula_units_Z   1
loop_
 _symmetry_equiv_pos_site_id
 _symmetry_equiv_pos_as_xyz
  1  'x, y, z'
loop_
 _atom_site_type_symbol
 _atom_site_label
 _atom_site_symmetry_multiplicity
 _atom_site_fract_x
 _atom_site_fract_y
 _atom_site_fract_z
 _atom_site_occupancy
 _atom_site_charge
Cu  Cu1  1  0.11582000  0.11582000  0.23164000  1.0 0.5295060519
Cu  Cu2  1  0.11582000  0.88418000  0.00000000  1.0 0.5295060519
Cu  Cu3  1  0.88418000  0.11582000  0.00000000  1.0 0.5295060519
Cu  Cu4  1  0.88418000  0.88418000  0.76836000  1.0 0.5295060519
Cu  Cu5  1  0.11684000  0.11684000  0.42320000  1.0 0.3583296704
Cu  Cu6  1  0.11684000  0.69364000  0.00000000  1.0 0.3583296704
Cu  Cu7  1  0.69364000  0.11684000  0.00000000  1.0 0.3583296704
Cu  Cu8  1  0.30636000  0.30636000  0.42320000  1.0 0.3583296704
Cu  Cu9  1  0.69364000  0.69364000  0.57680000  1.0 0.3583296704
Cu  Cu10  1  0.30636000  0.88316000  0.00000000  1.0 0.3583296704
Cu  Cu11  1  0.88316000  0.30636000  0.00000000  1.0 0.3583296704
Cu  Cu12  1  0.88316000  0.88316000  0.57680000  1.0 0.3583296704
H  H1  1  0.97710000  0.16280000  0.44290000  1.0 0.0785140242
H  H2  1  0.16280000  0.71990000  0.18570000  1.0 0.0785140242
H  H3  1  0.53420000  0.97710000  0.81430000  1.0 0.0785140242
H  H4  1  0.46580000  0.28010000  0.44290000  1.0 0.0785140242
H  H5  1  0.71990000  0.53420000  0.55710000  1.0 0.0785140242
H  H6  1  0.28010000  0.83720000  0.81430000  1.0 0.0785140242
H  H7  1  0.02290000  0.46580000  0.18570000  1.0 0.0785140242
H  H8  1  0.83720000  0.02290000  0.55710000  1.0 0.0785140242
H  H9  1  0.02290000  0.83720000  0.55710000  1.0 0.0785140242
H  H10  1  0.83720000  0.28010000  0.81430000  1.0 0.0785140242
H  H11  1  0.46580000  0.02290000  0.18570000  1.0 0.0785140242
H  H12  1  0.53420000  0.71990000  0.55710000  1.0 0.0785140242
H  H13  1  0.28010000  0.46580000  0.44290000  1.0 0.0785140242
H  H14  1  0.71990000  0.16280000  0.18570000  1.0 0.0785140242
H  H15  1  0.97710000  0.53420000  0.81430000  1.0 0.0785140242
H  H16  1  0.16280000  0.97710000  0.44290000  1.0 0.0785140242
H  H17  1  0.91750000  0.19900000  0.53830000  1.0 0.1036007757
H  H18  1  0.19900000  0.66070000  0.28150000  1.0 0.1036007757
H  H19  1  0.37920000  0.91750000  0.71850000  1.0 0.1036007757
H  H20  1  0.62080000  0.33930000  0.53830000  1.0 0.1036007757
H  H21  1  0.66070000  0.37920000  0.46170000  1.0 0.1036007757
H  H22  1  0.33930000  0.80100000  0.71850000  1.0 0.1036007757
H  H23  1  0.08250000  0.62080000  0.28150000  1.0 0.1036007757
H  H24  1  0.80100000  0.08250000  0.46170000  1.0 0.1036007757
H  H25  1  0.08250000  0.80100000  0.46170000  1.0 0.1036007757
H  H26  1  0.80100000  0.33930000  0.71850000  1.0 0.1036007757
H  H27  1  0.62080000  0.08250000  0.28150000  1.0 0.1036007757
H  H28  1  0.37920000  0.66070000  0.46170000  1.0 0.1036007757
H  H29  1  0.33930000  0.62080000  0.53830000  1.0 0.1036007757
H  H30  1  0.66070000  0.19900000  0.28150000  1.0 0.1036007757
H  H31  1  0.91750000  0.37920000  0.71850000  1.0 0.1036007757
H  H32  1  0.19900000  0.91750000  0.53830000  1.0 0.1036007757
C  C1  1  0.89608000  0.14528000  0.24920000  1.0 0.2670306879
C  C2  1  0.14528000  0.89608000  0.24920000  1.0 0.2670306879
C  C3  1  0.64688000  0.89608000  0.75080000  1.0 0.2670306879
C  C4  1  0.35312000  0.10392000  0.24920000  1.0 0.2670306879
C  C5  1  0.89608000  0.64688000  0.75080000  1.0 0.2670306879
C  C6  1  0.10392000  0.85472000  0.75080000  1.0 0.2670306879
C  C7  1  0.10392000  0.35312000  0.24920000  1.0 0.2670306879
C  C8  1  0.85472000  0.10392000  0.75080000  1.0 0.2670306879
C  C9  1  0.85573000  0.16123000  0.30550000  1.0 0.0288250511
C  C10  1  0.16123000  0.85573000  0.30550000  1.0 0.0288250511
C  C11  1  0.55023000  0.85573000  0.69450000  1.0 0.0288250511
C  C12  1  0.44977000  0.14427000  0.30550000  1.0 0.0288250511
C  C13  1  0.85573000  0.55023000  0.69450000  1.0 0.0288250511
C  C14  1  0.14427000  0.83877000  0.69450000  1.0 0.0288250511
C  C15  1  0.14427000  0.44977000  0.30550000  1.0 0.0288250511
C  C16  1  0.83877000  0.14427000  0.69450000  1.0 0.0288250511
C  C17  1  0.91337000  0.17107000  0.41050000  1.0 -0.1345450669
C  C18  1  0.17107000  0.76057000  0.25770000  1.0 -0.1345450669
C  C19  1  0.50287000  0.91337000  0.74230000  1.0 -0.1351769325
C  C20  1  0.49713000  0.23943000  0.41050000  1.0 -0.1345450669
C  C21  1  0.76057000  0.50287000  0.58950000  1.0 -0.1345450669
C  C22  1  0.23943000  0.82893000  0.74230000  1.0 -0.1345450669
C  C23  1  0.08663000  0.49713000  0.25770000  1.0 -0.1345450669
C  C24  1  0.82893000  0.08663000  0.58950000  1.0 -0.1345450669
C  C25  1  0.08663000  0.82893000  0.58950000  1.0 -0.1345450669
C  C26  1  0.82893000  0.23943000  0.74230000  1.0 -0.1345450669
C  C27  1  0.49713000  0.08663000  0.25770000  1.0 -0.1345450669
C  C28  1  0.50287000  0.76057000  0.58950000  1.0 -0.1345450669
C  C29  1  0.23943000  0.49713000  0.41050000  1.0 -0.1345450669
C  C30  1  0.76057000  0.17107000  0.25770000  1.0 -0.1345450669
C  C31  1  0.91337000  0.50287000  0.74230000  1.0 -0.1351769325
C  C32  1  0.17107000  0.91337000  0.41050000  1.0 -0.1345450669
C  C33  1  0.87736000  0.19296000  0.46780000  1.0 -0.1656615165
C  C34  1  0.19296000  0.72516000  0.31560000  1.0 -0.1656615165
C  C35  1  0.40956000  0.87736000  0.68440000  1.0 -0.1656615165
C  C36  1  0.59044000  0.27484000  0.46780000  1.0 -0.1656615165
C  C37  1  0.72516000  0.40956000  0.53220000  1.0 -0.1656615165
C  C38  1  0.27484000  0.80704000  0.68440000  1.0 -0.1656615165
C  C39  1  0.12264000  0.59044000  0.31560000  1.0 -0.1656615165
C  C40  1  0.80704000  0.12264000  0.53220000  1.0 -0.163957378
C  C41  1  0.12264000  0.80704000  0.53220000  1.0 -0.1656615165
C  C42  1  0.80704000  0.27484000  0.68440000  1.0 -0.1656615165
C  C43  1  0.59044000  0.12264000  0.31560000  1.0 -0.1656615165
C  C44  1  0.40956000  0.72516000  0.53220000  1.0 -0.1656615165
C  C45  1  0.27484000  0.59044000  0.46780000  1.0 -0.1656615165
C  C46  1  0.72516000  0.19296000  0.31560000  1.0 -0.1656615165
C  C47  1  0.87736000  0.40956000  0.68440000  1.0 -0.1656615165
C  C48  1  0.19296000  0.87736000  0.46780000  1.0 -0.1656615165
C  C49  1  0.78314000  0.20614000  0.42300000  1.0 0.0488837836
C  C50  1  0.20614000  0.78314000  0.42300000  1.0 0.0488837836
C  C51  1  0.36014000  0.78314000  0.57700000  1.0 0.0488837836
C  C52  1  0.63986000  0.21686000  0.42300000  1.0 0.0488837836
C  C53  1  0.78314000  0.36014000  0.57700000  1.0 0.0488837836
C  C54  1  0.21686000  0.79386000  0.57700000  1.0 0.0488837836
C  C55  1  0.21686000  0.63986000  0.42300000  1.0 0.0488837836
C  C56  1  0.79386000  0.21686000  0.57700000  1.0 0.0488837836
C  C57  1  0.75000000  0.25000000  0.50000000  1.0 -0.0200731234
C  C58  1  0.25000000  0.75000000  0.50000000  1.0 -0.0200731234
N  N1  1  0.99487000  0.12872000  0.21927000  1.0 -0.0614773052
N  N2  1  0.12872000  0.90945000  0.13385000  1.0 -0.0614773052
N  N3  1  0.77560000  0.99487000  0.86615000  1.0 -0.0614773052
N  N4  1  0.22440000  0.09055000  0.21927000  1.0 -0.0614773052
N  N5  1  0.90945000  0.77560000  0.78073000  1.0 -0.0614773052
N  N6  1  0.09055000  0.87128000  0.86615000  1.0 -0.0614773052
N  N7  1  0.00513000  0.22440000  0.13385000  1.0 -0.0614773052
N  N8  1  0.87128000  0.00513000  0.78073000  1.0 -0.0614773052
N  N9  1  0.00513000  0.87128000  0.78073000  1.0 -0.0614773052
N  N10  1  0.87128000  0.09055000  0.86615000  1.0 -0.0614773052
N  N11  1  0.22440000  0.00513000  0.13385000  1.0 -0.0614773052
N  N12  1  0.77560000  0.90945000  0.78073000  1.0 -0.0614773052
N  N13  1  0.09055000  0.22440000  0.21927000  1.0 -0.0614773052
N  N14  1  0.90945000  0.12872000  0.13385000  1.0 -0.0614773052
N  N15  1  0.99487000  0.77560000  0.86615000  1.0 -0.0614773052
N  N16  1  0.12872000  0.99487000  0.21927000  1.0 -0.0614773052
N  N17  1  0.98892000  0.13892000  0.29386000  1.0 -0.2960570064
N  N18  1  0.13892000  0.84506000  0.15000000  1.0 -0.2941402477
N  N19  1  0.69506000  0.98892000  0.85000000  1.0 -0.2960570064
N  N20  1  0.30494000  0.15494000  0.29386000  1.0 -0.2960570064
N  N21  1  0.84506000  0.69506000  0.70614000  1.0 -0.2941402477
N  N22  1  0.15494000  0.86108000  0.85000000  1.0 -0.2960570064
N  N23  1  0.01108000  0.30494000  0.15000000  1.0 -0.2941402477
N  N24  1  0.86108000  0.01108000  0.70614000  1.0 -0.2960570064
N  N25  1  0.01108000  0.86108000  0.70614000  1.0 -0.2941402477
N  N26  1  0.86108000  0.15494000  0.85000000  1.0 -0.2941402477
N  N27  1  0.30494000  0.01108000  0.15000000  1.0 -0.2960570064
N  N28  1  0.69506000  0.84506000  0.70614000  1.0 -0.2941402477
N  N29  1  0.15494000  0.30494000  0.29386000  1.0 -0.2960570064
N  N30  1  0.84506000  0.13892000  0.15000000  1.0 -0.2941402477
N  N31  1  0.98892000  0.69506000  0.85000000  1.0 -0.2941402477
N  N32  1  0.13892000  0.98892000  0.29386000  1.0 -0.2960570064
Cl  Cl1  1  0.00000000  0.00000000  0.00000000  1.0 -0.5469997135
Cl  Cl2  1  0.25200000  0.25200000  0.46800000  1.0 0.0488837836
Cl  Cl3  1  0.25200000  0.78400000  0.00000000  1.0 0.0488837836
Cl  Cl4  1  0.78400000  0.25200000  0.00000000  1.0 0.0488837836
Cl  Cl5  1  0.21600000  0.21600000  0.46800000  1.0 0.0488837836
Cl  Cl6  1  0.78400000  0.78400000  0.53200000  1.0 0.0488837836
Cl  Cl7  1  0.21600000  0.74800000  0.00000000  1.0 0.0488837836
Cl  Cl8  1  0.74800000  0.21600000  0.00000000  1.0 0.0488837836
Cl  Cl9  1  0.74800000  0.74800000  0.53200000  1.0 0.0488837836
O  O1  1  0.21400000  0.21400000  0.42800000  1.0 -0.0733147059
O  O2  1  0.21400000  0.78600000  0.00000000  1.0 -0.0784909757
O  O3  1  0.78600000  0.21400000  0.00000000  1.0 -0.0784909757
O  O4  1  0.78600000  0.78600000  0.57200000  1.0 -0.0784909757
O  O5  1  0.36780000  0.36780000  0.53540000  1.0 0.0785140242
O  O6  1  0.36780000  0.83240000  0.00000000  1.0 0.0785140242
O  O7  1  0.83240000  0.36780000  0.00000000  1.0 0.0785140242
O  O8  1  0.16760000  0.16760000  0.53540000  1.0 0.0785140242
O  O9  1  0.83240000  0.83240000  0.46460000  1.0 0.0785140242
O  O10  1  0.16760000  0.63220000  0.00000000  1.0 0.0785140242
O  O11  1  0.63220000  0.16760000  0.00000000  1.0 0.0785140242
O  O12  1  0.63220000  0.63220000  0.46460000  1.0 0.0785140242
O  O13  1  0.42780000  0.42780000  0.61920000  1.0 -0.0327471176
O  O14  1  0.42780000  0.80860000  0.00000000  1.0 -0.0327471176
O  O15  1  0.80860000  0.42780000  0.00000000  1.0 -0.0327471176
O  O16  1  0.19140000  0.19140000  0.61920000  1.0 -0.0359493299
O  O17  1  0.80860000  0.80860000  0.38080000  1.0 -0.0359493299
O  O18  1  0.19140000  0.57220000  0.00000000  1.0 -0.0327471176
O  O19  1  0.57220000  0.19140000  0.00000000  1.0 -0.0327471176
O  O20  1  0.57220000  0.57220000  0.38080000  1.0 -0.0359493299
