# DDEC6 charges by PACMAN v1.1 (https://github.com/mtap-research/PACMAN-charge/)
data_WOMFAG_ASR_pacman
_symmetry_space_group_name_H-M   'P 1'
_cell_length_a   9.89410000
_cell_length_b   9.89410000
_cell_length_c   9.89410000
_cell_angle_alpha   90.00000000
_cell_angle_beta   90.00000000
_cell_angle_gamma   90.00000000
_symmetry_Int_Tables_number   1
_chemical_formula_structural   CoC12(N3O4)3
_chemical_formula_sum   'Co4 C48 N36 O48'
_cell_volume   968.56525665
_cell_formula_units_Z   4
loop_
 _symmetry_equiv_pos_site_id
 _symmetry_equiv_pos_as_xyz
  1  'x, y, z'
loop_
 _atom_site_type_symbol
 _atom_site_label
 _atom_site_symmetry_multiplicity
 _atom_site_fract_x
 _atom_site_fract_y
 _atom_site_fract_z
 _atom_site_occupancy
 _atom_site_charge
Co  Co1  1  0.36220000  0.13780000  0.86220000  1.0 0.2832945642
Co  Co2  1  0.13780000  0.86220000  0.36220000  1.0 0.2832945642
Co  Co3  1  0.63780000  0.63780000  0.63780000  1.0 0.2832945642
Co  Co4  1  0.86220000  0.36220000  0.13780000  1.0 0.2854111052
C  C1  1  0.59950000  0.24610000  0.02640000  1.0 0.1417091545
C  C2  1  0.90050000  0.75390000  0.52640000  1.0 0.1417091545
C  C3  1  0.40050000  0.74610000  0.47360000  1.0 0.1417091545
C  C4  1  0.09950000  0.25390000  0.97360000  1.0 0.1417091545
C  C5  1  0.02640000  0.59950000  0.24610000  1.0 0.1417091545
C  C6  1  0.52640000  0.90050000  0.75390000  1.0 0.1417091545
C  C7  1  0.47360000  0.40050000  0.74610000  1.0 0.1417091545
C  C8  1  0.97360000  0.09950000  0.25390000  1.0 0.1417091545
C  C9  1  0.24610000  0.02640000  0.59950000  1.0 0.1417091545
C  C10  1  0.75390000  0.52640000  0.90050000  1.0 0.1417091545
C  C11  1  0.74610000  0.47360000  0.40050000  1.0 0.1417091545
C  C12  1  0.25390000  0.97360000  0.09950000  1.0 0.1417091545
C  C13  1  0.64840000  0.36560000  0.94570000  1.0 -0.009036034
C  C14  1  0.85160000  0.63440000  0.44570000  1.0 -0.009036034
C  C15  1  0.35160000  0.86560000  0.55430000  1.0 -0.009036034
C  C16  1  0.14840000  0.13440000  0.05430000  1.0 -0.009036034
C  C17  1  0.94570000  0.64840000  0.36560000  1.0 -0.009036034
C  C18  1  0.44570000  0.85160000  0.63440000  1.0 -0.009036034
C  C19  1  0.55430000  0.35160000  0.86560000  1.0 -0.009036034
C  C20  1  0.05430000  0.14840000  0.13440000  1.0 -0.009036034
C  C21  1  0.36560000  0.94570000  0.64840000  1.0 -0.009036034
C  C22  1  0.63440000  0.44570000  0.85160000  1.0 -0.009036034
C  C23  1  0.86560000  0.55430000  0.35160000  1.0 -0.009036034
C  C24  1  0.13440000  0.05430000  0.14840000  1.0 -0.009036034
C  C25  1  0.57370000  0.32960000  0.90190000  1.0 -0.009036034
C  C26  1  0.92630000  0.67040000  0.40190000  1.0 -0.009036034
C  C27  1  0.42630000  0.82960000  0.59810000  1.0 -0.009036034
C  C28  1  0.07370000  0.17040000  0.09810000  1.0 -0.009036034
C  C29  1  0.90190000  0.57370000  0.32960000  1.0 -0.009036034
C  C30  1  0.40190000  0.92630000  0.67040000  1.0 -0.009036034
C  C31  1  0.59810000  0.42630000  0.82960000  1.0 -0.009036034
C  C32  1  0.09810000  0.07370000  0.17040000  1.0 -0.009036034
C  C33  1  0.32960000  0.90190000  0.57370000  1.0 -0.009036034
C  C34  1  0.67040000  0.40190000  0.92630000  1.0 -0.009036034
C  C35  1  0.82960000  0.59810000  0.42630000  1.0 -0.009036034
C  C36  1  0.17040000  0.09810000  0.07370000  1.0 -0.009036034
C  C37  1  0.60290000  0.24190000  0.02150000  1.0 0.1417091545
C  C38  1  0.89710000  0.75810000  0.52150000  1.0 0.1417091545
C  C39  1  0.39710000  0.74190000  0.47850000  1.0 0.1417091545
C  C40  1  0.10290000  0.25810000  0.97850000  1.0 0.1417091545
C  C41  1  0.02150000  0.60290000  0.24190000  1.0 0.1417091545
C  C42  1  0.52150000  0.89710000  0.75810000  1.0 0.1417091545
C  C43  1  0.47850000  0.39710000  0.74190000  1.0 0.1417091545
C  C44  1  0.97850000  0.10290000  0.25810000  1.0 0.1417091545
C  C45  1  0.24190000  0.02150000  0.60290000  1.0 0.1417091545
C  C46  1  0.75810000  0.52150000  0.89710000  1.0 0.1417091545
C  C47  1  0.74190000  0.47850000  0.39710000  1.0 0.1417091545
C  C48  1  0.25810000  0.97850000  0.10290000  1.0 0.1417091545
N  N1  1  0.51800000  0.23930000  0.93470000  1.0 -0.0591297795
N  N2  1  0.98200000  0.76070000  0.43470000  1.0 -0.0591297795
N  N3  1  0.48200000  0.73930000  0.56530000  1.0 -0.0591297795
N  N4  1  0.01800000  0.26070000  0.06530000  1.0 -0.0591297795
N  N5  1  0.93470000  0.51800000  0.23930000  1.0 -0.0591297795
N  N6  1  0.43470000  0.98200000  0.76070000  1.0 -0.0591297795
N  N7  1  0.56530000  0.48200000  0.73930000  1.0 -0.0591297795
N  N8  1  0.06530000  0.01800000  0.26070000  1.0 -0.0591297795
N  N9  1  0.23930000  0.93470000  0.51800000  1.0 -0.0591297795
N  N10  1  0.76070000  0.43470000  0.98200000  1.0 -0.0591297795
N  N11  1  0.73930000  0.56530000  0.48200000  1.0 -0.0591297795
N  N12  1  0.26070000  0.06530000  0.01800000  1.0 -0.0591297795
N  N13  1  0.60700000  0.22130000  0.03270000  1.0 0.0520462527
N  N14  1  0.89300000  0.77870000  0.53270000  1.0 0.0520462527
N  N15  1  0.39300000  0.72130000  0.46730000  1.0 0.0520462527
N  N16  1  0.10700000  0.27870000  0.96730000  1.0 0.0520462527
N  N17  1  0.03270000  0.60700000  0.22130000  1.0 0.0520462527
N  N18  1  0.53270000  0.89300000  0.77870000  1.0 0.0520462527
N  N19  1  0.46730000  0.39300000  0.72130000  1.0 0.0520462527
N  N20  1  0.96730000  0.10700000  0.27870000  1.0 0.0520462527
N  N21  1  0.22130000  0.03270000  0.60700000  1.0 0.0520462527
N  N22  1  0.77870000  0.53270000  0.89300000  1.0 0.0520462527
N  N23  1  0.72130000  0.46730000  0.39300000  1.0 0.0520462527
N  N24  1  0.27870000  0.96730000  0.10700000  1.0 0.0520462527
N  N25  1  0.69820000  0.31710000  0.02930000  1.0 -0.0591297795
N  N26  1  0.80180000  0.68290000  0.52930000  1.0 -0.0591297795
N  N27  1  0.30180000  0.81710000  0.47070000  1.0 -0.0591297795
N  N28  1  0.19820000  0.18290000  0.97070000  1.0 -0.0591297795
N  N29  1  0.02930000  0.69820000  0.31710000  1.0 -0.0545149737
N  N30  1  0.52930000  0.80180000  0.68290000  1.0 -0.0591297795
N  N31  1  0.47070000  0.30180000  0.81710000  1.0 -0.0591297795
N  N32  1  0.97070000  0.19820000  0.18290000  1.0 -0.0591297795
N  N33  1  0.31710000  0.02930000  0.69820000  1.0 -0.0591297795
N  N34  1  0.68290000  0.52930000  0.80180000  1.0 -0.0591297795
N  N35  1  0.81710000  0.47070000  0.30180000  1.0 -0.0591297795
N  N36  1  0.18290000  0.97070000  0.19820000  1.0 -0.0545149737
O  O1  1  0.71570000  0.22700000  0.07610000  1.0 -0.0591297795
O  O2  1  0.78430000  0.77300000  0.57610000  1.0 -0.0591297795
O  O3  1  0.28430000  0.72700000  0.42390000  1.0 -0.0591297795
O  O4  1  0.21570000  0.27300000  0.92390000  1.0 -0.0591297795
O  O5  1  0.07610000  0.71570000  0.22700000  1.0 -0.0591297795
O  O6  1  0.57610000  0.78430000  0.77300000  1.0 -0.0591297795
O  O7  1  0.42390000  0.28430000  0.72700000  1.0 -0.0591297795
O  O8  1  0.92390000  0.21570000  0.27300000  1.0 -0.0591297795
O  O9  1  0.22700000  0.07610000  0.71570000  1.0 -0.0591297795
O  O10  1  0.77300000  0.57610000  0.78430000  1.0 -0.0591297795
O  O11  1  0.72700000  0.42390000  0.28430000  1.0 -0.0591297795
O  O12  1  0.27300000  0.92390000  0.21570000  1.0 -0.0591297795
O  O13  1  0.51520000  0.15010000  0.02380000  1.0 -0.0934399229
O  O14  1  0.98480000  0.84990000  0.52380000  1.0 -0.0934399229
O  O15  1  0.48480000  0.65010000  0.47620000  1.0 -0.0934399229
O  O16  1  0.01520000  0.34990000  0.97620000  1.0 -0.0934399229
O  O17  1  0.02380000  0.51520000  0.15010000  1.0 -0.0934399229
O  O18  1  0.52380000  0.98480000  0.84990000  1.0 -0.0934399229
O  O19  1  0.47620000  0.48480000  0.65010000  1.0 -0.0934399229
O  O20  1  0.97620000  0.01520000  0.34990000  1.0 -0.0934399229
O  O21  1  0.15010000  0.02380000  0.51520000  1.0 -0.0934399229
O  O22  1  0.84990000  0.52380000  0.98480000  1.0 -0.0934399229
O  O23  1  0.65010000  0.47620000  0.48480000  1.0 -0.0934399229
O  O24  1  0.34990000  0.97620000  0.01520000  1.0 -0.0934399229
O  O25  1  0.68260000  0.22640000  0.11870000  1.0 -0.0790764037
O  O26  1  0.81740000  0.77360000  0.61870000  1.0 -0.0790764037
O  O27  1  0.31740000  0.72640000  0.38130000  1.0 -0.0790764037
O  O28  1  0.18260000  0.27360000  0.88130000  1.0 -0.0790764037
O  O29  1  0.11870000  0.68260000  0.22640000  1.0 -0.0790764037
O  O30  1  0.61870000  0.81740000  0.77360000  1.0 -0.0790764037
O  O31  1  0.38130000  0.31740000  0.72640000  1.0 -0.0790764037
O  O32  1  0.88130000  0.18260000  0.27360000  1.0 -0.0790764037
O  O33  1  0.22640000  0.11870000  0.68260000  1.0 -0.0790764037
O  O34  1  0.77360000  0.61870000  0.81740000  1.0 -0.0790764037
O  O35  1  0.72640000  0.38130000  0.31740000  1.0 -0.0790764037
O  O36  1  0.27360000  0.88130000  0.18260000  1.0 -0.0790764037
O  O37  1  0.48370000  0.19890000  0.02980000  1.0 -0.0655310648
O  O38  1  0.01630000  0.80110000  0.52980000  1.0 -0.0591297795
O  O39  1  0.51630000  0.69890000  0.47020000  1.0 -0.0655310648
O  O40  1  0.98370000  0.30110000  0.97020000  1.0 -0.0655310648
O  O41  1  0.02980000  0.48370000  0.19890000  1.0 -0.0591297795
O  O42  1  0.52980000  0.01630000  0.80110000  1.0 -0.0591297795
O  O43  1  0.47020000  0.51630000  0.69890000  1.0 -0.0655310648
O  O44  1  0.97020000  0.98370000  0.30110000  1.0 -0.0655310648
O  O45  1  0.19890000  0.02980000  0.48370000  1.0 -0.0591297795
O  O46  1  0.80110000  0.52980000  0.01630000  1.0 -0.0655310648
O  O47  1  0.69890000  0.47020000  0.51630000  1.0 -0.0655310648
O  O48  1  0.30110000  0.97020000  0.98370000  1.0 -0.0591297795
