# DDEC6 charges by PACMAN v1.1 (https://github.com/mtap-research/PACMAN-charge/)
data_WONVIH_FSR_pacman
_symmetry_space_group_name_H-M   'P 1'
_cell_length_a   18.92450000
_cell_length_b   18.92450000
_cell_length_c   18.92450000
_cell_angle_alpha   128.30900000
_cell_angle_beta   128.30900000
_cell_angle_gamma   76.12460000
_symmetry_Int_Tables_number   1
_chemical_formula_structural   ZrTi4(C24O11)2
_chemical_formula_sum   'Zr2 Ti8 C96 O44'
_cell_volume   4056.59144334
_cell_formula_units_Z   2
loop_
 _symmetry_equiv_pos_site_id
 _symmetry_equiv_pos_as_xyz
  1  'x, y, z'
loop_
 _atom_site_type_symbol
 _atom_site_label
 _atom_site_symmetry_multiplicity
 _atom_site_fract_x
 _atom_site_fract_y
 _atom_site_fract_z
 _atom_site_occupancy
 _atom_site_charge
Zr  Zr1  1  0.37713000  0.37713000  0.00000000  1.0 2.2566440179
Zr  Zr2  1  0.62287000  0.62287000  0.00000000  1.0 2.2566440179
Ti  Ti1  1  0.55100000  0.33440000  0.00000000  1.0 2.115148194
Ti  Ti2  1  0.66666667  0.45033000  0.00000000  1.0 2.1038095627
Ti  Ti3  1  0.33440000  0.55100000  0.00000000  1.0 2.111310688
Ti  Ti4  1  0.45033000  0.66666667  0.00000000  1.0 2.111310688
Ti  Ti5  1  0.66560000  0.66560000  0.21660000  1.0 2.115148194
Ti  Ti6  1  0.54967000  0.54967000  0.21633000  1.0 2.1038095627
Ti  Ti7  1  0.44900000  0.44900000  0.78340000  1.0 2.111310688
Ti  Ti8  1  0.33333333  0.33333333  0.78367000  1.0 2.1038095627
C  C1  1  0.75970000  0.39110000  0.15540000  1.0 0.6621265733
C  C2  1  0.84270000  0.38870000  0.24600000  1.0 -0.0896619541
C  C3  1  0.93150000  0.42800000  0.29750000  1.0 -0.0022407681
C  C4  1  0.00560000  0.42360000  0.38600000  1.0 0.0423715579
C  C5  1  0.09340000  0.46850000  0.44090000  1.0 -0.0085087347
C  C6  1  0.16700000  0.44950000  0.51550000  1.0 0.0717308987
C  C7  1  0.23570000  0.60430000  0.84460000  1.0 0.6621265733
C  C8  1  0.14270000  0.59670000  0.75400000  1.0 -0.0896619541
C  C9  1  0.13050000  0.63400000  0.70250000  1.0 -0.0022407681
C  C10  1  0.03760000  0.61960000  0.61400000  1.0 0.0423715579
C  C11  1  0.02760000  0.65250000  0.55910000  1.0 -0.0085087347
C  C12  1  0.93400000  0.65150000  0.48450000  1.0 0.0717308987
C  C13  1  0.60890000  0.76430000  0.36860000  1.0 0.6621265733
C  C14  1  0.61130000  0.85730000  0.45400000  1.0 -0.0896619541
C  C15  1  0.57200000  0.86950000  0.50350000  1.0 -0.0022407681
C  C16  1  0.57640000  0.96240000  0.58200000  1.0 0.0423715579
C  C17  1  0.53150000  0.97240000  0.62490000  1.0 -0.0085087347
C  C18  1  0.55050000  0.06600000  0.71750000  1.0 0.0717308987
C  C19  1  0.39570000  0.24030000  0.63140000  1.0 0.6621265733
C  C20  1  0.40330000  0.15730000  0.54600000  1.0 -0.0896619541
C  C21  1  0.36600000  0.06850000  0.49650000  1.0 -0.0022407681
C  C22  1  0.38040000  0.99440000  0.41800000  1.0 0.0423715579
C  C23  1  0.34750000  0.90660000  0.37510000  1.0 -0.0085087347
C  C24  1  0.34850000  0.83300000  0.28250000  1.0 0.0717308987
C  C25  1  0.24030000  0.39570000  0.63140000  1.0 0.6621265733
C  C26  1  0.15730000  0.40330000  0.54600000  1.0 -0.0896619541
C  C27  1  0.06850000  0.36600000  0.49650000  1.0 -0.0022407681
C  C28  1  0.99440000  0.38040000  0.41800000  1.0 0.0423715579
C  C29  1  0.90660000  0.34750000  0.37510000  1.0 -0.0085087347
C  C30  1  0.83300000  0.34850000  0.28250000  1.0 0.0717308987
C  C31  1  0.76430000  0.60890000  0.36860000  1.0 0.6621265733
C  C32  1  0.85730000  0.61130000  0.45400000  1.0 -0.0896619541
C  C33  1  0.86950000  0.57200000  0.50350000  1.0 -0.0022407681
C  C34  1  0.96240000  0.57640000  0.58200000  1.0 0.0423715579
C  C35  1  0.97240000  0.53150000  0.62490000  1.0 -0.0085087347
C  C36  1  0.06600000  0.55050000  0.71750000  1.0 0.0717308987
C  C37  1  0.39110000  0.75970000  0.15540000  1.0 0.6621265733
C  C38  1  0.38870000  0.84270000  0.24600000  1.0 -0.0896619541
C  C39  1  0.42800000  0.93150000  0.29750000  1.0 -0.0022407681
C  C40  1  0.42360000  0.00560000  0.38600000  1.0 0.0423715579
C  C41  1  0.46850000  0.09340000  0.44090000  1.0 -0.0085087347
C  C42  1  0.44950000  0.16700000  0.51550000  1.0 0.0717308987
C  C43  1  0.60430000  0.23570000  0.84460000  1.0 0.6621265733
C  C44  1  0.59670000  0.14270000  0.75400000  1.0 -0.0896619541
C  C45  1  0.63400000  0.13050000  0.70250000  1.0 -0.0022407681
C  C46  1  0.61960000  0.03760000  0.61400000  1.0 0.0423715579
C  C47  1  0.65250000  0.02760000  0.55910000  1.0 -0.0085087347
C  C48  1  0.65150000  0.93400000  0.48450000  1.0 0.0717308987
C  C49  1  0.47330000  0.21110000  0.00000000  1.0 0.6621265733
C  C50  1  0.46730000  0.13650000  0.00000000  1.0 -0.1562233494
C  C51  1  0.40000000  0.11700000  0.00000000  1.0 0.0506473483
C  C52  1  0.39760000  0.04280000  0.00000000  1.0 -0.0675949307
C  C53  1  0.46280000  0.98880000  0.00000000  1.0 0.0717308987
C  C54  1  0.53020000  0.00860000  0.00000000  1.0 0.0717308987
C  C55  1  0.53280000  0.08280000  0.00000000  1.0 0.0506473483
C  C56  1  0.59470000  0.95270000  0.00000000  1.0 -0.0675949307
C  C57  1  0.58930000  0.87930000  0.00000000  1.0 0.0506473483
C  C58  1  0.52130000  0.86210000  0.00000000  1.0 -0.138702199
C  C59  1  0.45550000  0.91610000  0.00000000  1.0 0.0506473483
C  C60  1  0.52250000  0.78510000  0.00000000  1.0 0.6756989582
C  C61  1  0.21110000  0.47330000  0.00000000  1.0 0.6621265733
C  C62  1  0.13650000  0.46730000  0.00000000  1.0 -0.1562233494
C  C63  1  0.11700000  0.40000000  0.00000000  1.0 0.0506473483
C  C64  1  0.04280000  0.39760000  0.00000000  1.0 -0.0675949307
C  C65  1  0.98880000  0.46280000  0.00000000  1.0 0.0717308987
C  C66  1  0.00860000  0.53020000  0.00000000  1.0 0.0598901453
C  C67  1  0.08280000  0.53280000  0.00000000  1.0 0.0598901453
C  C68  1  0.95270000  0.59470000  0.00000000  1.0 -0.0632701294
C  C69  1  0.87930000  0.58930000  0.00000000  1.0 0.0506473483
C  C70  1  0.86210000  0.52130000  0.00000000  1.0 -0.138702199
C  C71  1  0.91610000  0.45550000  0.00000000  1.0 0.0506473483
C  C72  1  0.78510000  0.52250000  0.00000000  1.0 0.6756989582
C  C73  1  0.78890000  0.78890000  0.26220000  1.0 0.6621265733
C  C74  1  0.86350000  0.86350000  0.33080000  1.0 -0.1538709627
C  C75  1  0.88300000  0.88300000  0.28300000  1.0 0.0506473483
C  C76  1  0.95720000  0.95720000  0.35480000  1.0 -0.0632701294
C  C77  1  0.01120000  0.01120000  0.47400000  1.0 0.0717308987
C  C78  1  0.99140000  0.99140000  0.52160000  1.0 0.0717308987
C  C79  1  0.91720000  0.91720000  0.45000000  1.0 0.0598901453
C  C80  1  0.04730000  0.04730000  0.64200000  1.0 -0.0632701294
C  C81  1  0.12070000  0.12070000  0.71000000  1.0 0.0506473483
C  C82  1  0.13790000  0.13790000  0.65920000  1.0 -0.138702199
C  C83  1  0.08390000  0.08390000  0.53940000  1.0 0.0506473483
C  C84  1  0.21490000  0.21490000  0.73740000  1.0 0.6756989582
C  C85  1  0.52670000  0.52670000  0.73780000  1.0 0.6621265733
C  C86  1  0.53270000  0.53270000  0.66920000  1.0 -0.1538709627
C  C87  1  0.60000000  0.60000000  0.71700000  1.0 0.0506473483
C  C88  1  0.60240000  0.60240000  0.64520000  1.0 -0.0675949307
C  C89  1  0.53720000  0.53720000  0.52600000  1.0 0.0717308987
C  C90  1  0.46980000  0.46980000  0.47840000  1.0 0.0717308987
C  C91  1  0.46720000  0.46720000  0.55000000  1.0 0.0598901453
C  C92  1  0.40530000  0.40530000  0.35800000  1.0 -0.0632701294
C  C93  1  0.41070000  0.41070000  0.29000000  1.0 0.0506473483
C  C94  1  0.47870000  0.47870000  0.34080000  1.0 -0.138702199
C  C95  1  0.54450000  0.54450000  0.46060000  1.0 0.0506473483
C  C96  1  0.47750000  0.47750000  0.26260000  1.0 0.6756989582
O  O1  1  0.41810000  0.31050000  0.88980000  1.0 -1.1365285592
O  O2  1  0.76450000  0.44820000  0.14210000  1.0 -0.5877809187
O  O3  1  0.68410000  0.34290000  0.10880000  1.0 -0.6193149315
O  O4  1  0.42070000  0.52830000  0.11020000  1.0 -1.1365285592
O  O5  1  0.30610000  0.62240000  0.85790000  1.0 -0.5877809187
O  O6  1  0.23410000  0.57530000  0.89120000  1.0 -0.6193149315
O  O7  1  0.68950000  0.57930000  0.10760000  1.0 -1.1365285592
O  O8  1  0.55180000  0.69390000  0.31630000  1.0 -0.5877809187
O  O9  1  0.65710000  0.76590000  0.34120000  1.0 -0.6193149315
O  O10  1  0.47170000  0.58190000  0.89240000  1.0 -1.1365285592
O  O11  1  0.37760000  0.23550000  0.68370000  1.0 -0.5877809187
O  O12  1  0.42470000  0.31590000  0.65880000  1.0 -0.6193149315
O  O13  1  0.58190000  0.47170000  0.89240000  1.0 -1.1365285592
O  O14  1  0.23550000  0.37760000  0.68370000  1.0 -0.5877809187
O  O15  1  0.31590000  0.42470000  0.65880000  1.0 -0.6193149315
O  O16  1  0.57930000  0.68950000  0.10760000  1.0 -1.1365285592
O  O17  1  0.69390000  0.55180000  0.31630000  1.0 -0.5877809187
O  O18  1  0.76590000  0.65710000  0.34120000  1.0 -0.6193149315
O  O19  1  0.31050000  0.41810000  0.88980000  1.0 -1.1365285592
O  O20  1  0.44820000  0.76450000  0.14210000  1.0 -0.5877809187
O  O21  1  0.34290000  0.68410000  0.10880000  1.0 -0.6193149315
O  O22  1  0.52830000  0.42070000  0.11020000  1.0 -1.1365285592
O  O23  1  0.62240000  0.30610000  0.85790000  1.0 -0.5877809187
O  O24  1  0.57530000  0.23410000  0.89120000  1.0 -0.6193149315
O  O25  1  0.58030000  0.41950000  0.00000000  1.0 -0.9511997328
O  O26  1  0.53580000  0.22220000  0.00000000  1.0 -0.5424906837
O  O27  1  0.41210000  0.25950000  0.00000000  1.0 -0.6004892259
O  O28  1  0.46440000  0.76420000  0.00000000  1.0 -0.5833650456
O  O29  1  0.58750000  0.74110000  0.00000000  1.0 -0.6004892259
O  O30  1  0.41950000  0.58030000  0.00000000  1.0 -0.9511997328
O  O31  1  0.22220000  0.53580000  0.00000000  1.0 -0.5424906837
O  O32  1  0.25950000  0.41210000  0.00000000  1.0 -0.6004892259
O  O33  1  0.76420000  0.46440000  0.00000000  1.0 -0.5833650456
O  O34  1  0.74110000  0.58750000  0.00000000  1.0 -0.6004892259
O  O35  1  0.58050000  0.58050000  0.16080000  1.0 -0.9511997328
O  O36  1  0.77780000  0.77780000  0.31360000  1.0 -0.5424906837
O  O37  1  0.74050000  0.74050000  0.15260000  1.0 -0.5877809187
O  O38  1  0.23580000  0.23580000  0.70020000  1.0 -0.5833650456
O  O39  1  0.25890000  0.25890000  0.84640000  1.0 -0.6004892259
O  O40  1  0.41970000  0.41970000  0.83920000  1.0 -0.9511997328
O  O41  1  0.46420000  0.46420000  0.68640000  1.0 -0.5424906837
O  O42  1  0.58790000  0.58790000  0.84740000  1.0 -0.6004892259
O  O43  1  0.53560000  0.53560000  0.29980000  1.0 -0.5833650456
O  O44  1  0.41250000  0.41250000  0.15360000  1.0 -0.6004892259
