# DDEC6 charges by PACMAN v1.1 (https://github.com/mtap-research/PACMAN-charge/)
data_WOPHEQ_ASR_pacman
_symmetry_space_group_name_H-M   'P 1'
_cell_length_a   10.07900000
_cell_length_b   14.81700000
_cell_length_c   20.16500000
_cell_angle_alpha   98.57700000
_cell_angle_beta   103.94100000
_cell_angle_gamma   91.75700000
_symmetry_Int_Tables_number   1
_chemical_formula_structural   CoH17C24N6O5
_chemical_formula_sum   'Co4 H68 C96 N24 O20'
_cell_volume   2883.09478763
_cell_formula_units_Z   4
loop_
 _symmetry_equiv_pos_site_id
 _symmetry_equiv_pos_as_xyz
  1  'x, y, z'
loop_
 _atom_site_type_symbol
 _atom_site_label
 _atom_site_symmetry_multiplicity
 _atom_site_fract_x
 _atom_site_fract_y
 _atom_site_fract_z
 _atom_site_occupancy
 _atom_site_charge
Co  Co1  1  0.10718000  0.62560000  0.65307000  1.0 0.8306002966
Co  Co2  1  0.86111000  0.66168000  0.79390000  1.0 0.8456396213
Co  Co3  1  0.89282000  0.37440000  0.34693000  1.0 0.8306002966
Co  Co4  1  0.13889000  0.33832000  0.20610000  1.0 0.844962155
H  H1  1  0.30330000  0.78730000  0.72680000  1.0 0.1198154729
H  H2  1  0.30440000  0.94750000  0.76200000  1.0 0.1402926645
H  H3  1  0.67950000  0.79220000  0.72560000  1.0 0.1198154729
H  H4  1  0.39970000  0.65610000  0.79110000  1.0 0.1305362285
H  H5  1  0.57060000  0.62620000  0.65890000  1.0 0.1305362285
H  H6  1  0.72540000  0.62740000  0.49200000  1.0 0.1198154729
H  H7  1  0.31820000  0.60600000  0.46980000  1.0 0.1402926645
H  H8  1  0.24060000  0.67590000  0.95780000  1.0 0.1305362285
H  H9  1  0.31920000  0.72560000  0.08000000  1.0 0.1016224177
H  H10  1  0.29780000  0.61830000  0.06170000  1.0 0.1116266897
H  H11  1  0.97230000  0.50680000  0.87510000  1.0 0.1116266897
H  H12  1  0.75670000  0.49410000  0.68610000  1.0 0.1016224177
H  H13  1  0.45470000  0.79660000  0.19240000  1.0 0.1198154729
H  H14  1  0.41630000  0.52350000  0.14420000  1.0 0.1198154729
H  H15  1  0.64670000  0.66900000  0.98180000  1.0 0.1509037627
H  H16  1  0.99510000  0.95380000  0.60310000  1.0 0.1305362285
H  H17  1  0.65280000  0.69310000  0.39320000  1.0 0.1116266897
H  H18  1  0.65730000  0.58680000  0.37180000  1.0 0.1116266897
H  H19  1  0.54420000  0.78420000  0.30930000  1.0 0.1198154729
H  H20  1  0.74740000  0.33850000  0.67000000  1.0 0.1305362285
H  H21  1  0.01380000  0.00790000  0.85540000  1.0 0.1305362285
H  H22  1  0.01610000  0.26050000  0.58350000  1.0 0.1116266897
H  H23  1  0.66410000  0.93880000  0.70590000  1.0 0.1402926645
H  H24  1  0.98410000  0.43690000  0.56020000  1.0 0.1305362285
H  H25  1  0.01700000  0.85320000  0.86530000  1.0 0.1116266897
H  H26  1  0.96380000  0.35060000  0.86430000  1.0 0.1198154729
H  H27  1  0.99530000  0.78360000  0.57250000  1.0 0.1116266897
H  H28  1  0.51750000  0.51100000  0.25750000  1.0 0.1305362285
H  H29  1  0.88690000  0.13970000  0.88960000  1.0 0.2675684295
H  H30  1  0.90030000  0.23910000  0.88580000  1.0 0.2575224391
H  H31  1  0.21050000  0.36020000  0.77450000  1.0 0.1305362285
H  H32  1  0.18490000  0.49910000  0.75260000  1.0 0.1116266897
H  H33  1  0.06150000  0.08260000  0.52910000  1.0 0.2675684295
H  H34  1  0.03640000  0.18110000  0.54460000  1.0 0.1953206113
H  H35  1  0.69670000  0.21270000  0.27320000  1.0 0.1198154729
H  H36  1  0.69560000  0.05250000  0.23800000  1.0 0.1402926645
H  H37  1  0.32050000  0.20780000  0.27440000  1.0 0.1198154729
H  H38  1  0.60030000  0.34390000  0.20890000  1.0 0.1305362285
H  H39  1  0.42940000  0.37380000  0.34110000  1.0 0.1305362285
H  H40  1  0.27460000  0.37260000  0.50800000  1.0 0.1198154729
H  H41  1  0.68180000  0.39400000  0.53020000  1.0 0.1402926645
H  H42  1  0.75940000  0.32410000  0.04220000  1.0 0.1305362285
H  H43  1  0.68080000  0.27440000  0.92000000  1.0 0.1016224177
H  H44  1  0.70220000  0.38170000  0.93830000  1.0 0.1116266897
H  H45  1  0.02770000  0.49320000  0.12490000  1.0 0.1116266897
H  H46  1  0.24330000  0.50590000  0.31390000  1.0 0.1016224177
H  H47  1  0.54530000  0.20340000  0.80760000  1.0 0.1198154729
H  H48  1  0.58370000  0.47650000  0.85580000  1.0 0.1198154729
H  H49  1  0.35330000  0.33100000  0.01820000  1.0 0.1509037627
H  H50  1  0.00490000  0.04620000  0.39690000  1.0 0.1305362285
H  H51  1  0.34720000  0.30690000  0.60680000  1.0 0.1116266897
H  H52  1  0.34270000  0.41320000  0.62820000  1.0 0.1116266897
H  H53  1  0.45580000  0.21580000  0.69070000  1.0 0.1198154729
H  H54  1  0.25260000  0.66150000  0.33000000  1.0 0.1305362285
H  H55  1  0.98620000  0.99210000  0.14460000  1.0 0.1305362285
H  H56  1  0.98390000  0.73950000  0.41650000  1.0 0.1116266897
H  H57  1  0.33590000  0.06120000  0.29410000  1.0 0.1402926645
H  H58  1  0.01590000  0.56310000  0.43980000  1.0 0.1305362285
H  H59  1  0.98300000  0.14680000  0.13470000  1.0 0.1116266897
H  H60  1  0.03620000  0.64940000  0.13570000  1.0 0.1198154729
H  H61  1  0.00470000  0.21640000  0.42750000  1.0 0.1116266897
H  H62  1  0.48250000  0.48900000  0.74250000  1.0 0.1305362285
H  H63  1  0.11310000  0.86030000  0.11040000  1.0 0.2675684295
H  H64  1  0.09970000  0.76090000  0.11420000  1.0 0.2575224391
H  H65  1  0.78950000  0.63980000  0.22550000  1.0 0.1305362285
H  H66  1  0.81510000  0.50090000  0.24740000  1.0 0.1116266897
H  H67  1  0.93850000  0.91740000  0.47090000  1.0 0.2675684295
H  H68  1  0.96360000  0.81890000  0.45540000  1.0 0.1953206113
C  C1  1  0.23450000  0.82010000  0.70390000  1.0 0.0182868368
C  C2  1  0.24300000  0.91630000  0.72260000  1.0 -0.1769439303
C  C3  1  0.15050000  0.96040000  0.67670000  1.0 0.0782030089
C  C4  1  0.74840000  0.83560000  0.75120000  1.0 0.0897547654
C  C5  1  0.41150000  0.66120000  0.83870000  1.0 -0.1701816299
C  C6  1  0.55760000  0.62290000  0.61140000  1.0 -0.1701816299
C  C7  1  0.67010000  0.62700000  0.58190000  1.0 -0.0041640411
C  C8  1  0.42650000  0.61390000  0.56770000  1.0 0.0092608649
C  C9  1  0.81360000  0.63530000  0.62740000  1.0 0.5589917651
C  C10  1  0.15610000  0.66700000  0.82080000  1.0 0.5589917651
C  C11  1  0.29610000  0.66730000  0.86740000  1.0 -0.0041640411
C  C12  1  0.30460000  0.61180000  0.59780000  1.0 0.5274049393
C  C13  1  0.44410000  0.66760000  0.98020000  1.0 0.2536737672
C  C14  1  0.65030000  0.62490000  0.51100000  1.0 -0.2418215299
C  C15  1  0.40690000  0.61200000  0.49800000  1.0 -0.2219061843
C  C16  1  0.31550000  0.67100000  0.93840000  1.0 -0.2496742294
C  C17  1  0.54050000  0.66290000  0.88120000  1.0 0.0092608649
C  C18  1  0.36460000  0.66910000  0.08340000  1.0 -0.087816088
C  C19  1  0.66480000  0.65990000  0.85180000  1.0 0.5234537474
C  C20  1  0.92440000  0.47250000  0.83320000  1.0 0.0897547654
C  C21  1  0.84340000  0.22610000  0.74890000  1.0 0.1509037627
C  C22  1  0.13080000  0.20740000  0.69570000  1.0 0.1904548756
C  C23  1  0.51780000  0.61900000  0.46860000  1.0 0.2675684295
C  C24  1  0.83890000  0.98900000  0.77580000  1.0 0.0700942124
C  C25  1  0.79900000  0.46510000  0.72260000  1.0 0.0897547654
C  C26  1  0.83620000  0.08030000  0.75460000  1.0 0.1676715663
C  C27  1  0.42420000  0.66170000  0.15760000  1.0 0.0700942124
C  C28  1  0.53800000  0.64580000  0.29570000  1.0 0.0700942124
C  C29  1  0.46410000  0.73920000  0.20580000  1.0 -0.1592900702
C  C30  1  0.44320000  0.57600000  0.17710000  1.0 -0.1296654553
C  C31  1  0.55910000  0.66690000  0.95290000  1.0 -0.2219061843
C  C32  1  0.05980000  0.92120000  0.62920000  1.0 -0.1769439303
C  C33  1  0.85450000  0.32510000  0.76670000  1.0 0.0700942124
C  C34  1  0.59850000  0.63740000  0.36920000  1.0 -0.0783623853
C  C35  1  0.51980000  0.73180000  0.27620000  1.0 -0.1592900702
C  C36  1  0.79280000  0.37160000  0.71280000  1.0 -0.1544567445
C  C37  1  0.94650000  0.96520000  0.82730000  1.0 -0.2219061843
C  C38  1  0.04890000  0.31180000  0.61700000  1.0 -0.2129402805
C  C39  1  0.73810000  0.92350000  0.73880000  1.0 -0.1701816299
C  C40  1  0.15430000  0.06540000  0.69490000  1.0 0.2097645453
C  C41  1  0.11560000  0.30820000  0.68200000  1.0 0.0570974494
C  C42  1  0.03100000  0.42170000  0.60230000  1.0 0.1198154729
C  C43  1  0.94460000  0.87150000  0.83310000  1.0 0.1016224177
C  C44  1  0.92060000  0.37780000  0.82690000  1.0 -0.2008994965
C  C45  1  0.05500000  0.81410000  0.61300000  1.0 0.1116266897
C  C46  1  0.50190000  0.56860000  0.24530000  1.0 -0.1296654553
C  C47  1  0.16530000  0.37100000  0.73080000  1.0 -0.1393432566
C  C48  1  0.14920000  0.45220000  0.71580000  1.0 0.0092608649
C  C49  1  0.76550000  0.17990000  0.29610000  1.0 0.0182868368
C  C50  1  0.75700000  0.08370000  0.27740000  1.0 -0.1769439303
C  C51  1  0.84950000  0.03960000  0.32330000  1.0 0.0782030089
C  C52  1  0.25160000  0.16440000  0.24880000  1.0 0.0897547654
C  C53  1  0.58850000  0.33880000  0.16130000  1.0 -0.1701816299
C  C54  1  0.44240000  0.37710000  0.38860000  1.0 -0.1701816299
C  C55  1  0.32990000  0.37300000  0.41810000  1.0 -0.0041640411
C  C56  1  0.57350000  0.38610000  0.43230000  1.0 0.0092608649
C  C57  1  0.18640000  0.36470000  0.37260000  1.0 0.5589917651
C  C58  1  0.84390000  0.33300000  0.17920000  1.0 0.5589917651
C  C59  1  0.70390000  0.33270000  0.13260000  1.0 -0.0041640411
C  C60  1  0.69540000  0.38820000  0.40220000  1.0 0.5274049393
C  C61  1  0.55590000  0.33240000  0.01980000  1.0 0.2536737672
C  C62  1  0.34970000  0.37510000  0.48900000  1.0 -0.2418215299
C  C63  1  0.59310000  0.38800000  0.50200000  1.0 -0.2219061843
C  C64  1  0.68450000  0.32900000  0.06160000  1.0 -0.2496742294
C  C65  1  0.45950000  0.33710000  0.11880000  1.0 0.0092608649
C  C66  1  0.63540000  0.33090000  0.91660000  1.0 -0.087816088
C  C67  1  0.33520000  0.34010000  0.14820000  1.0 0.5234537474
C  C68  1  0.07560000  0.52750000  0.16680000  1.0 0.0897547654
C  C69  1  0.15660000  0.77390000  0.25110000  1.0 0.1509037627
C  C70  1  0.86920000  0.79260000  0.30430000  1.0 0.1904548756
C  C71  1  0.48220000  0.38100000  0.53140000  1.0 0.2675684295
C  C72  1  0.16110000  0.01100000  0.22420000  1.0 0.0700942124
C  C73  1  0.20100000  0.53490000  0.27740000  1.0 0.0897547654
C  C74  1  0.16380000  0.91970000  0.24540000  1.0 0.1676715663
C  C75  1  0.57580000  0.33830000  0.84240000  1.0 0.0700942124
C  C76  1  0.46200000  0.35420000  0.70430000  1.0 0.0700942124
C  C77  1  0.53590000  0.26080000  0.79420000  1.0 -0.1592900702
C  C78  1  0.55680000  0.42400000  0.82290000  1.0 -0.1296654553
C  C79  1  0.44090000  0.33310000  0.04710000  1.0 -0.2219061843
C  C80  1  0.94020000  0.07880000  0.37080000  1.0 -0.1769439303
C  C81  1  0.14550000  0.67490000  0.23330000  1.0 0.0700942124
C  C82  1  0.40150000  0.36260000  0.63080000  1.0 -0.0783623853
C  C83  1  0.48020000  0.26820000  0.72380000  1.0 -0.1592900702
C  C84  1  0.20720000  0.62840000  0.28720000  1.0 -0.1544567445
C  C85  1  0.05350000  0.03480000  0.17270000  1.0 -0.2129402805
C  C86  1  0.95110000  0.68820000  0.38300000  1.0 -0.2129402805
C  C87  1  0.26190000  0.07650000  0.26120000  1.0 -0.1701816299
C  C88  1  0.84570000  0.93460000  0.30510000  1.0 0.2097645453
C  C89  1  0.88440000  0.69180000  0.31800000  1.0 0.0570974494
C  C90  1  0.96900000  0.57830000  0.39770000  1.0 0.1198154729
C  C91  1  0.05540000  0.12850000  0.16690000  1.0 0.1016224177
C  C92  1  0.07940000  0.62220000  0.17310000  1.0 -0.2008994965
C  C93  1  0.94500000  0.18590000  0.38700000  1.0 0.1116266897
C  C94  1  0.49810000  0.43140000  0.75470000  1.0 -0.1296654553
C  C95  1  0.83470000  0.62900000  0.26920000  1.0 -0.1393432566
C  C96  1  0.85080000  0.54780000  0.28420000  1.0 0.0092608649
N  N1  1  0.12390000  0.77140000  0.65070000  1.0 -0.2008994965
N  N2  1  0.85080000  0.80770000  0.79760000  1.0 -0.2219061843
N  N3  1  0.86400000  0.51660000  0.78320000  1.0 -0.2418215299
N  N4  1  0.08900000  0.48130000  0.65530000  1.0 -0.2496742294
N  N5  1  0.18540000  0.10110000  0.75700000  1.0 -0.2008994965
N  N6  1  0.16830000  0.18090000  0.74920000  1.0 -0.0615609703
N  N7  1  0.81060000  0.18280000  0.68600000  1.0 -0.2300680303
N  N8  1  0.80650000  0.09140000  0.68950000  1.0 -0.2418215299
N  N9  1  0.86060000  0.16280000  0.79420000  1.0 0.0897547654
N  N10  1  0.11030000  0.12600000  0.64990000  1.0 -0.0355717005
N  N11  1  0.88580000  0.18310000  0.86550000  1.0 -0.4648036906
N  N12  1  0.06100000  0.13070000  0.55870000  1.0 -0.6322103389
N  N13  1  0.87610000  0.22860000  0.34930000  1.0 -0.2008994965
N  N14  1  0.14920000  0.19230000  0.20240000  1.0 -0.2219061843
N  N15  1  0.13600000  0.48340000  0.21680000  1.0 -0.2418215299
N  N16  1  0.91100000  0.51870000  0.34470000  1.0 -0.2496742294
N  N17  1  0.81460000  0.89890000  0.24300000  1.0 -0.2008994965
N  N18  1  0.83170000  0.81910000  0.25080000  1.0 -0.0615609703
N  N19  1  0.18940000  0.81720000  0.31400000  1.0 -0.2300680303
N  N20  1  0.19350000  0.90860000  0.31050000  1.0 -0.2418215299
N  N21  1  0.13940000  0.83720000  0.20580000  1.0 0.0897547654
N  N22  1  0.88970000  0.87400000  0.35010000  1.0 -0.0355717005
N  N23  1  0.11420000  0.81690000  0.13450000  1.0 -0.465216721
N  N24  1  0.93900000  0.86930000  0.44130000  1.0 -0.6322103389
O  O1  1  0.90970000  0.62160000  0.59870000  1.0 -0.5396710583
O  O2  1  0.05920000  0.67690000  0.85020000  1.0 -0.5396710583
O  O3  1  0.18740000  0.60140000  0.56020000  1.0 -0.5158896991
O  O4  1  0.64640000  0.65500000  0.78800000  1.0 -0.5264218398
O  O5  1  0.32340000  0.62120000  0.66300000  1.0 -0.5264218398
O  O6  1  0.78280000  0.66560000  0.89140000  1.0 -0.5498133996
O  O7  1  0.82970000  0.65600000  0.69120000  1.0 -0.5614343533
O  O8  1  0.48700000  0.62170000  0.40020000  1.0 -0.1701816299
O  O9  1  0.47470000  0.66760000  0.04990000  1.0 -0.1701816299
O  O10  1  0.14220000  0.65880000  0.75780000  1.0 -0.5498133996
O  O11  1  0.09030000  0.37840000  0.40130000  1.0 -0.5396710583
O  O12  1  0.94080000  0.32310000  0.14980000  1.0 -0.5396710583
O  O13  1  0.81260000  0.39860000  0.43980000  1.0 -0.5158896991
O  O14  1  0.35360000  0.34500000  0.21200000  1.0 -0.5264218398
O  O15  1  0.67660000  0.37880000  0.33700000  1.0 -0.5264218398
O  O16  1  0.21720000  0.33440000  0.10860000  1.0 -0.5498133996
O  O17  1  0.17030000  0.34400000  0.30880000  1.0 -0.5614343533
O  O18  1  0.51300000  0.37830000  0.59980000  1.0 -0.1701816299
O  O19  1  0.52530000  0.33240000  0.95010000  1.0 -0.1701816299
O  O20  1  0.85780000  0.34120000  0.24220000  1.0 -0.5498133996
