# DDEC6 charges by PACMAN v1.1 (https://github.com/mtap-research/PACMAN-charge/)
data_WOPHIU_ASR_pacman
_symmetry_space_group_name_H-M   'P 1'
_cell_length_a   17.11660000
_cell_length_b   17.11660000
_cell_length_c   19.08000000
_cell_angle_alpha   70.64060000
_cell_angle_beta   109.35900000
_cell_angle_gamma   128.95100000
_symmetry_Int_Tables_number   1
_chemical_formula_structural   ZnH12C18N3O5
_chemical_formula_sum   'Zn8 H96 C144 N24 O40'
_cell_volume   4043.33420943
_cell_formula_units_Z   8
loop_
 _symmetry_equiv_pos_site_id
 _symmetry_equiv_pos_as_xyz
  1  'x, y, z'
loop_
 _atom_site_type_symbol
 _atom_site_label
 _atom_site_symmetry_multiplicity
 _atom_site_fract_x
 _atom_site_fract_y
 _atom_site_fract_z
 _atom_site_occupancy
 _atom_site_charge
Zn  Zn1  1  0.12209000  0.03841000  0.85607000  1.0 0.9646896506
Zn  Zn2  1  0.03841000  0.12209000  0.64393000  1.0 0.9646896506
Zn  Zn3  1  0.87791000  0.96159000  0.14393000  1.0 0.9655834521
Zn  Zn4  1  0.96159000  0.87791000  0.35607000  1.0 0.9655834521
Zn  Zn5  1  0.26903000  0.25999000  0.48637000  1.0 0.7631407911
Zn  Zn6  1  0.25999000  0.26903000  0.01363000  1.0 0.7631407911
Zn  Zn7  1  0.73097000  0.74001000  0.51363000  1.0 0.7631407911
Zn  Zn8  1  0.74001000  0.73097000  0.98637000  1.0 0.7631407911
H  H1  1  0.18950000  0.87630000  0.78610000  1.0 0.1301545301
H  H2  1  0.87630000  0.18950000  0.71390000  1.0 0.1301545301
H  H3  1  0.81050000  0.12370000  0.21390000  1.0 0.1301545301
H  H4  1  0.12370000  0.81050000  0.28610000  1.0 0.1301545301
H  H5  1  0.14990000  0.78070000  0.60230000  1.0 0.1358606279
H  H6  1  0.78070000  0.14990000  0.89770000  1.0 0.1358606279
H  H7  1  0.85010000  0.21930000  0.39770000  1.0 0.1358606279
H  H8  1  0.21930000  0.85010000  0.10230000  1.0 0.1358606279
H  H9  1  0.06360000  0.95720000  0.58490000  1.0 0.1358606279
H  H10  1  0.95720000  0.06360000  0.91510000  1.0 0.1358606279
H  H11  1  0.93640000  0.04280000  0.41510000  1.0 0.1358606279
H  H12  1  0.04280000  0.93640000  0.08490000  1.0 0.1358606279
H  H13  1  0.30480000  0.84020000  0.82740000  1.0 0.1033925833
H  H14  1  0.84020000  0.30480000  0.67260000  1.0 0.1033925833
H  H15  1  0.69520000  0.15980000  0.17260000  1.0 0.1033925833
H  H16  1  0.15980000  0.69520000  0.32740000  1.0 0.1033925833
H  H17  1  0.19900000  0.73700000  0.84330000  1.0 0.1093452475
H  H18  1  0.73700000  0.19900000  0.65670000  1.0 0.1093452475
H  H19  1  0.80100000  0.26300000  0.15670000  1.0 0.1093452475
H  H20  1  0.26300000  0.80100000  0.34330000  1.0 0.1093452475
H  H21  1  0.28830000  0.68570000  0.95410000  1.0 0.1198303725
H  H22  1  0.68570000  0.28830000  0.54590000  1.0 0.1198303725
H  H23  1  0.71170000  0.31430000  0.04590000  1.0 0.1198303725
H  H24  1  0.31430000  0.71170000  0.45410000  1.0 0.1198303725
H  H25  1  0.36780000  0.60540000  0.00450000  1.0 0.1198303725
H  H26  1  0.60540000  0.36780000  0.49550000  1.0 0.1198303725
H  H27  1  0.63220000  0.39460000  0.99550000  1.0 0.1198303725
H  H28  1  0.39460000  0.63220000  0.50450000  1.0 0.1198303725
H  H29  1  0.43120000  0.58440000  0.93300000  1.0 0.1358606279
H  H30  1  0.58440000  0.43120000  0.56700000  1.0 0.1358606279
H  H31  1  0.56880000  0.41560000  0.06700000  1.0 0.1358606279
H  H32  1  0.41560000  0.56880000  0.43300000  1.0 0.1358606279
H  H33  1  0.33150000  0.72170000  0.75130000  1.0 0.1301545301
H  H34  1  0.72170000  0.33150000  0.74870000  1.0 0.1301545301
H  H35  1  0.66850000  0.27830000  0.24870000  1.0 0.1301545301
H  H36  1  0.27830000  0.66850000  0.25130000  1.0 0.1301545301
H  H37  1  0.50610000  0.65550000  0.80710000  1.0 0.1093452475
H  H38  1  0.65550000  0.50610000  0.69290000  1.0 0.1093452475
H  H39  1  0.49390000  0.34450000  0.19290000  1.0 0.1093452475
H  H40  1  0.34450000  0.49390000  0.30710000  1.0 0.1093452475
H  H41  1  0.46160000  0.70560000  0.73700000  1.0 0.1033925833
H  H42  1  0.70560000  0.46160000  0.76300000  1.0 0.1033925833
H  H43  1  0.53840000  0.29440000  0.26300000  1.0 0.1033925833
H  H44  1  0.29440000  0.53840000  0.23700000  1.0 0.1033925833
H  H45  1  0.53980000  0.66280000  0.69390000  1.0 0.1301545301
H  H46  1  0.66280000  0.53980000  0.80610000  1.0 0.1301545301
H  H47  1  0.46020000  0.33720000  0.30610000  1.0 0.1301545301
H  H48  1  0.33720000  0.46020000  0.19390000  1.0 0.1301545301
H  H49  1  0.42460000  0.44560000  0.57500000  1.0 0.1198303725
H  H50  1  0.44560000  0.42460000  0.92500000  1.0 0.1198303725
H  H51  1  0.57540000  0.55440000  0.42500000  1.0 0.1198303725
H  H52  1  0.55440000  0.57540000  0.07500000  1.0 0.1198303725
H  H53  1  0.26220000  0.40360000  0.71350000  1.0 0.1457937854
H  H54  1  0.40360000  0.26220000  0.78650000  1.0 0.1457937854
H  H55  1  0.73780000  0.59640000  0.28650000  1.0 0.1457937854
H  H56  1  0.59640000  0.73780000  0.21350000  1.0 0.1457937854
H  H57  1  0.15890000  0.26370000  0.32970000  1.0 0.1198303725
H  H58  1  0.26370000  0.15890000  0.17030000  1.0 0.1198303725
H  H59  1  0.84110000  0.73630000  0.67030000  1.0 0.1198303725
H  H60  1  0.73630000  0.84110000  0.82970000  1.0 0.1198303725
H  H61  1  0.07340000  0.32400000  0.24360000  1.0 0.1301545301
H  H62  1  0.32400000  0.07340000  0.25640000  1.0 0.1301545301
H  H63  1  0.92660000  0.67600000  0.75640000  1.0 0.1301545301
H  H64  1  0.67600000  0.92660000  0.74360000  1.0 0.1301545301
H  H65  1  0.09590000  0.44950000  0.39660000  1.0 0.1198303725
H  H66  1  0.44950000  0.09590000  0.10340000  1.0 0.1198303725
H  H67  1  0.90410000  0.55050000  0.60340000  1.0 0.1198303725
H  H68  1  0.55050000  0.90410000  0.89660000  1.0 0.1198303725
H  H69  1  0.17850000  0.37910000  0.48460000  1.0 0.1033925833
H  H70  1  0.37910000  0.17850000  0.01540000  1.0 0.1033925833
H  H71  1  0.82150000  0.62090000  0.51540000  1.0 0.1033925833
H  H72  1  0.62090000  0.82150000  0.98460000  1.0 0.1033925833
H  H73  1  0.85470000  0.54450000  0.21830000  1.0 0.1301545301
H  H74  1  0.54450000  0.85470000  0.28170000  1.0 0.1301545301
H  H75  1  0.14530000  0.45550000  0.78170000  1.0 0.1301545301
H  H76  1  0.45550000  0.14530000  0.71830000  1.0 0.1301545301
H  H77  1  0.77450000  0.62410000  0.14940000  1.0 0.1093452475
H  H78  1  0.62410000  0.77450000  0.35060000  1.0 0.1093452475
H  H79  1  0.22550000  0.37590000  0.85060000  1.0 0.1093452475
H  H80  1  0.37590000  0.22550000  0.64940000  1.0 0.1093452475
H  H81  1  0.87530000  0.68130000  0.97680000  1.0 0.1198303725
H  H82  1  0.68130000  0.87530000  0.52320000  1.0 0.1198303725
H  H83  1  0.12470000  0.31870000  0.02320000  1.0 0.1198303725
H  H84  1  0.31870000  0.12470000  0.47680000  1.0 0.1198303725
H  H85  1  0.96260000  0.61500000  0.04200000  1.0 0.1457937854
H  H86  1  0.61500000  0.96260000  0.45800000  1.0 0.1457937854
H  H87  1  0.03740000  0.38500000  0.95800000  1.0 0.1457937854
H  H88  1  0.38500000  0.03740000  0.54200000  1.0 0.1457937854
H  H89  1  0.91590000  0.49130000  0.29970000  1.0 0.2665137845
H  H90  1  0.49130000  0.91590000  0.20030000  1.0 0.2665137845
H  H91  1  0.08410000  0.50870000  0.70030000  1.0 0.2665137845
H  H92  1  0.50870000  0.08410000  0.79970000  1.0 0.2665137845
H  H93  1  0.97360000  0.44940000  0.35020000  1.0 0.2665137845
H  H94  1  0.44940000  0.97360000  0.14980000  1.0 0.2665137845
H  H95  1  0.02640000  0.55060000  0.64980000  1.0 0.2665137845
H  H96  1  0.55060000  0.02640000  0.85020000  1.0 0.2665137845
C  C1  1  0.10870000  0.97990000  0.72490000  1.0 0.5933791781
C  C2  1  0.97990000  0.10870000  0.77510000  1.0 0.5933791781
C  C3  1  0.89130000  0.02010000  0.27510000  1.0 0.5933791781
C  C4  1  0.02010000  0.89130000  0.22490000  1.0 0.5933791781
C  C5  1  0.12470000  0.92550000  0.69020000  1.0 -0.0201646699
C  C6  1  0.92550000  0.12470000  0.80980000  1.0 -0.0201646699
C  C7  1  0.87530000  0.07450000  0.30980000  1.0 -0.0201646699
C  C8  1  0.07450000  0.87530000  0.19020000  1.0 -0.0137791339
C  C9  1  0.16800000  0.87500000  0.73470000  1.0 -0.2554808845
C  C10  1  0.87500000  0.16800000  0.76530000  1.0 -0.2554808845
C  C11  1  0.83200000  0.12500000  0.26530000  1.0 -0.2554808845
C  C12  1  0.12500000  0.83200000  0.23470000  1.0 -0.2554808845
C  C13  1  0.17870000  0.82250000  0.70090000  1.0 0.2393353964
C  C14  1  0.82250000  0.17870000  0.79910000  1.0 0.2393353964
C  C15  1  0.82130000  0.17750000  0.29910000  1.0 0.2393353964
C  C16  1  0.17750000  0.82130000  0.20090000  1.0 0.2393353964
C  C17  1  0.14360000  0.81760000  0.62380000  1.0 -0.2325866287
C  C18  1  0.81760000  0.14360000  0.87620000  1.0 -0.2325866287
C  C19  1  0.85640000  0.18240000  0.37620000  1.0 -0.2325866287
C  C20  1  0.18240000  0.85640000  0.12380000  1.0 -0.2325866287
C  C21  1  0.10010000  0.86710000  0.57970000  1.0 -0.0032623419
C  C22  1  0.86710000  0.10010000  0.92030000  1.0 -0.0032623419
C  C23  1  0.89990000  0.13290000  0.42030000  1.0 -0.0032623419
C  C24  1  0.13290000  0.89990000  0.07970000  1.0 -0.0032623419
C  C25  1  0.05870000  0.85750000  0.49810000  1.0 0.5396073842
C  C26  1  0.85750000  0.05870000  0.00190000  1.0 0.5396073842
C  C27  1  0.94130000  0.14250000  0.50190000  1.0 0.5396073842
C  C28  1  0.14250000  0.94130000  0.99810000  1.0 0.5396073842
C  C29  1  0.09180000  0.92220000  0.61410000  1.0 -0.1370338416
C  C30  1  0.92220000  0.09180000  0.88590000  1.0 -0.1370338416
C  C31  1  0.90820000  0.07780000  0.38590000  1.0 -0.1370338416
C  C32  1  0.07780000  0.90820000  0.11410000  1.0 -0.1370338416
C  C33  1  0.25600000  0.77060000  0.81790000  1.0 -0.0838198736
C  C34  1  0.77060000  0.25600000  0.68210000  1.0 -0.0838198736
C  C35  1  0.74400000  0.22940000  0.18210000  1.0 -0.0838198736
C  C36  1  0.22940000  0.74400000  0.31790000  1.0 -0.0838198736
C  C37  1  0.30490000  0.71570000  0.84660000  1.0 0.0806174397
C  C38  1  0.71570000  0.30490000  0.65340000  1.0 0.0881070182
C  C39  1  0.69510000  0.28430000  0.15340000  1.0 0.0806174397
C  C40  1  0.28430000  0.69510000  0.34660000  1.0 0.0806174397
C  C41  1  0.31430000  0.67830000  0.92290000  1.0 -0.1786730344
C  C42  1  0.67830000  0.31430000  0.57710000  1.0 -0.1786730344
C  C43  1  0.68570000  0.32170000  0.07710000  1.0 -0.1786730344
C  C44  1  0.32170000  0.68570000  0.42290000  1.0 -0.1786730344
C  C45  1  0.36220000  0.63000000  0.95310000  1.0 -0.0838198736
C  C46  1  0.63000000  0.36220000  0.54690000  1.0 -0.0838198736
C  C47  1  0.63780000  0.37000000  0.04690000  1.0 -0.0838198736
C  C48  1  0.37000000  0.63780000  0.45310000  1.0 -0.0838198736
C  C49  1  0.39980000  0.61760000  0.91150000  1.0 -0.1465820851
C  C50  1  0.61760000  0.39980000  0.58850000  1.0 -0.1465820851
C  C51  1  0.60020000  0.38240000  0.08850000  1.0 -0.1465820851
C  C52  1  0.38240000  0.60020000  0.41150000  1.0 -0.1465820851
C  C53  1  0.39200000  0.65480000  0.83470000  1.0 0.0623887266
C  C54  1  0.65480000  0.39200000  0.66530000  1.0 0.0623887266
C  C55  1  0.60800000  0.34520000  0.16530000  1.0 0.0623887266
C  C56  1  0.34520000  0.60800000  0.33470000  1.0 0.0623887266
C  C57  1  0.34080000  0.70100000  0.80320000  1.0 -0.2006149025
C  C58  1  0.70100000  0.34080000  0.69680000  1.0 -0.2006149025
C  C59  1  0.65920000  0.29900000  0.19680000  1.0 -0.2053883737
C  C60  1  0.29900000  0.65920000  0.30320000  1.0 -0.2053883737
C  C61  1  0.44460000  0.65040000  0.77980000  1.0 -0.0201646699
C  C62  1  0.65040000  0.44460000  0.72020000  1.0 -0.0201646699
C  C63  1  0.55540000  0.34960000  0.22020000  1.0 -0.0201646699
C  C64  1  0.34960000  0.55540000  0.27980000  1.0 -0.0201646699
C  C65  1  0.39740000  0.53860000  0.70990000  1.0 0.2462067688
C  C66  1  0.53860000  0.39740000  0.79010000  1.0 0.2462067688
C  C67  1  0.60260000  0.46140000  0.29010000  1.0 0.2462067688
C  C68  1  0.46140000  0.60260000  0.20990000  1.0 0.2462067688
C  C69  1  0.48680000  0.59940000  0.68000000  1.0 -0.2554808845
C  C70  1  0.59940000  0.48680000  0.82000000  1.0 -0.2554808845
C  C71  1  0.51320000  0.40060000  0.32000000  1.0 -0.2554808845
C  C72  1  0.40060000  0.51320000  0.18000000  1.0 -0.2554808845
C  C73  1  0.49640000  0.56380000  0.62820000  1.0 -0.0137791339
C  C74  1  0.56380000  0.49640000  0.87180000  1.0 -0.0137791339
C  C75  1  0.50360000  0.43620000  0.37180000  1.0 -0.0137791339
C  C76  1  0.43620000  0.50360000  0.12820000  1.0 -0.0137791339
C  C77  1  0.58890000  0.63050000  0.59290000  1.0 0.5196553851
C  C78  1  0.63050000  0.58890000  0.90710000  1.0 0.5196553851
C  C79  1  0.41110000  0.36950000  0.40710000  1.0 0.5196553851
C  C80  1  0.36950000  0.41110000  0.09290000  1.0 0.5196553851
C  C81  1  0.41830000  0.46890000  0.60900000  1.0 -0.1786730344
C  C82  1  0.46890000  0.41830000  0.89100000  1.0 -0.1786730344
C  C83  1  0.58170000  0.53110000  0.39100000  1.0 -0.1786730344
C  C84  1  0.53110000  0.58170000  0.10900000  1.0 -0.1786730344
C  C85  1  0.32930000  0.40770000  0.64070000  1.0 -0.0201646699
C  C86  1  0.40770000  0.32930000  0.85930000  1.0 -0.0201646699
C  C87  1  0.67070000  0.59230000  0.35930000  1.0 -0.0201646699
C  C88  1  0.59230000  0.67070000  0.14070000  1.0 -0.0201646699
C  C89  1  0.24250000  0.30510000  0.62220000  1.0 0.5784895802
C  C90  1  0.30510000  0.24250000  0.87780000  1.0 0.5784895802
C  C91  1  0.75750000  0.69490000  0.37780000  1.0 0.5784895802
C  C92  1  0.69490000  0.75750000  0.12220000  1.0 0.5784895802
C  C93  1  0.32070000  0.44410000  0.69190000  1.0 -0.2395789204
C  C94  1  0.44410000  0.32070000  0.80810000  1.0 -0.2395789204
C  C95  1  0.67930000  0.55590000  0.30810000  1.0 -0.2395789204
C  C96  1  0.55590000  0.67930000  0.19190000  1.0 -0.2395789204
C  C97  1  0.14750000  0.30230000  0.34410000  1.0 0.0278239818
C  C98  1  0.30230000  0.14750000  0.15590000  1.0 0.0278239818
C  C99  1  0.85250000  0.69770000  0.65590000  1.0 0.0278239818
C  C100  1  0.69770000  0.85250000  0.84410000  1.0 0.0278239818
C  C101  1  0.09730000  0.33990000  0.29180000  1.0 -0.1465820851
C  C102  1  0.33990000  0.09730000  0.20820000  1.0 -0.1465820851
C  C103  1  0.90270000  0.66010000  0.70820000  1.0 -0.1465820851
C  C104  1  0.66010000  0.90270000  0.79180000  1.0 -0.1465820851
C  C105  1  0.08140000  0.39720000  0.30670000  1.0 0.0623887266
C  C106  1  0.39720000  0.08140000  0.19330000  1.0 0.0623887266
C  C107  1  0.91860000  0.60280000  0.69330000  1.0 0.0623887266
C  C108  1  0.60280000  0.91860000  0.80670000  1.0 0.0623887266
C  C109  1  0.10960000  0.41300000  0.38220000  1.0 -0.2164212269
C  C110  1  0.41300000  0.10960000  0.11780000  1.0 -0.2164212269
C  C111  1  0.89040000  0.58700000  0.61780000  1.0 -0.2164212269
C  C112  1  0.58700000  0.89040000  0.88220000  1.0 -0.2164212269
C  C113  1  0.16000000  0.37020000  0.43470000  1.0 0.1093452475
C  C114  1  0.37020000  0.16000000  0.06530000  1.0 0.1093452475
C  C115  1  0.84000000  0.62980000  0.56530000  1.0 0.1093452475
C  C116  1  0.62980000  0.84000000  0.93470000  1.0 0.1093452475
C  C117  1  0.03720000  0.44240000  0.24100000  1.0 0.1763785268
C  C118  1  0.44240000  0.03720000  0.25900000  1.0 0.1763785268
C  C119  1  0.96280000  0.55760000  0.75900000  1.0 0.1763785268
C  C120  1  0.55760000  0.96280000  0.74100000  1.0 0.1763785268
C  C121  1  0.97130000  0.52050000  0.16990000  1.0 0.1564765992
C  C122  1  0.52050000  0.97130000  0.33010000  1.0 0.1564765992
C  C123  1  0.02870000  0.47950000  0.83010000  1.0 0.1564765992
C  C124  1  0.47950000  0.02870000  0.66990000  1.0 0.1564765992
C  C125  1  0.91630000  0.57290000  0.13470000  1.0 0.0806174397
C  C126  1  0.57290000  0.91630000  0.36530000  1.0 0.0806174397
C  C127  1  0.08370000  0.42710000  0.86530000  1.0 0.0806174397
C  C128  1  0.42710000  0.08370000  0.63470000  1.0 0.0806174397
C  C129  1  0.86140000  0.57440000  0.16820000  1.0 -0.2006149025
C  C130  1  0.57440000  0.86140000  0.33180000  1.0 -0.2006149025
C  C131  1  0.13860000  0.42560000  0.83180000  1.0 -0.2053883737
C  C132  1  0.42560000  0.13860000  0.66820000  1.0 -0.2006149025
C  C133  1  0.81300000  0.62260000  0.12580000  1.0 0.0806174397
C  C134  1  0.62260000  0.81300000  0.37420000  1.0 0.0806174397
C  C135  1  0.18700000  0.37740000  0.87420000  1.0 0.0881070182
C  C136  1  0.37740000  0.18700000  0.62580000  1.0 0.0806174397
C  C137  1  0.87160000  0.65640000  0.02780000  1.0 0.0806174397
C  C138  1  0.65640000  0.87160000  0.47220000  1.0 0.0806174397
C  C139  1  0.12840000  0.34360000  0.97220000  1.0 0.0744567896
C  C140  1  0.34360000  0.12840000  0.52780000  1.0 0.0806174397
C  C141  1  0.92290000  0.61390000  0.06620000  1.0 -0.1786730344
C  C142  1  0.61390000  0.92290000  0.43380000  1.0 -0.1786730344
C  C143  1  0.07710000  0.38610000  0.93380000  1.0 -0.1786730344
C  C144  1  0.38610000  0.07710000  0.56620000  1.0 -0.1786730344
N  N1  1  0.18190000  0.31910000  0.41710000  1.0 -0.2395789204
N  N2  1  0.31910000  0.18190000  0.08290000  1.0 -0.2395789204
N  N3  1  0.81810000  0.68090000  0.58290000  1.0 -0.2395789204
N  N4  1  0.68090000  0.81810000  0.91710000  1.0 -0.2395789204
N  N5  1  0.04790000  0.45650000  0.17460000  1.0 -0.1786730344
N  N6  1  0.45650000  0.04790000  0.32540000  1.0 -0.1786730344
N  N7  1  0.95210000  0.54350000  0.82540000  1.0 -0.1852274751
N  N8  1  0.54350000  0.95210000  0.67460000  1.0 -0.1786730344
N  N9  1  0.01040000  0.50620000  0.13580000  1.0 -0.155650657
N  N10  1  0.50620000  0.01040000  0.36420000  1.0 -0.155650657
N  N11  1  0.98960000  0.49380000  0.86420000  1.0 -0.1465820851
N  N12  1  0.49380000  0.98960000  0.63580000  1.0 -0.155650657
N  N13  1  0.99210000  0.48530000  0.24000000  1.0 0.0881070182
N  N14  1  0.48530000  0.99210000  0.26000000  1.0 0.0881070182
N  N15  1  0.00790000  0.51470000  0.76000000  1.0 0.0881070182
N  N16  1  0.51470000  0.00790000  0.74000000  1.0 0.0881070182
N  N17  1  0.95530000  0.47370000  0.30590000  1.0 -0.4875549888
N  N18  1  0.47370000  0.95530000  0.19410000  1.0 -0.4875549888
N  N19  1  0.04470000  0.52630000  0.69410000  1.0 -0.4875549888
N  N20  1  0.52630000  0.04470000  0.80590000  1.0 -0.4875549888
N  N21  1  0.81940000  0.66520000  0.05480000  1.0 -0.2006149025
N  N22  1  0.66520000  0.81940000  0.44520000  1.0 -0.2006149025
N  N23  1  0.18060000  0.33480000  0.94520000  1.0 -0.2006149025
N  N24  1  0.33480000  0.18060000  0.55480000  1.0 -0.2006149025
O  O1  1  0.12818000  0.97202000  0.79490000  1.0 -0.529344753
O  O2  1  0.97202000  0.12818000  0.70510000  1.0 -0.529344753
O  O3  1  0.87182000  0.02798000  0.20510000  1.0 -0.529344753
O  O4  1  0.02798000  0.87182000  0.29490000  1.0 -0.529344753
O  O5  1  0.07696000  0.02904000  0.68270000  1.0 -0.5409210538
O  O6  1  0.02904000  0.07696000  0.81730000  1.0 -0.5409210538
O  O7  1  0.92304000  0.97096000  0.31730000  1.0 -0.5409210538
O  O8  1  0.97096000  0.92304000  0.18270000  1.0 -0.5409210538
O  O9  1  0.01447000  0.90133000  0.46170000  1.0 -0.5742741888
O  O10  1  0.90133000  0.01447000  0.03830000  1.0 -0.5742741888
O  O11  1  0.98553000  0.09867000  0.53830000  1.0 -0.5742741888
O  O12  1  0.09867000  0.98553000  0.96170000  1.0 -0.5742741888
O  O13  1  0.06330000  0.80650000  0.47060000  1.0 -0.529344753
O  O14  1  0.80650000  0.06330000  0.02940000  1.0 -0.529344753
O  O15  1  0.93670000  0.19350000  0.52940000  1.0 -0.529344753
O  O16  1  0.19350000  0.93670000  0.97060000  1.0 -0.529344753
O  O17  1  0.22144000  0.76976000  0.73900000  1.0 -0.2006149025
O  O18  1  0.76976000  0.22144000  0.76100000  1.0 -0.2006149025
O  O19  1  0.77856000  0.23024000  0.26100000  1.0 -0.2006149025
O  O20  1  0.23024000  0.77856000  0.23900000  1.0 -0.2006149025
O  O21  1  0.37560000  0.56180000  0.75740000  1.0 -0.1149933329
O  O22  1  0.56180000  0.37560000  0.74260000  1.0 -0.1149933329
O  O23  1  0.62440000  0.43820000  0.24260000  1.0 -0.1151962867
O  O24  1  0.43820000  0.62440000  0.25740000  1.0 -0.1149933329
O  O25  1  0.66390000  0.71270000  0.61540000  1.0 -0.5409210538
O  O26  1  0.71270000  0.66390000  0.88460000  1.0 -0.5409210538
O  O27  1  0.33610000  0.28730000  0.38460000  1.0 -0.5409210538
O  O28  1  0.28730000  0.33610000  0.11540000  1.0 -0.5409210538
O  O29  1  0.59218000  0.60682000  0.53890000  1.0 -0.510582528
O  O30  1  0.60682000  0.59218000  0.96110000  1.0 -0.510582528
O  O31  1  0.40782000  0.39318000  0.46110000  1.0 -0.510582528
O  O32  1  0.39318000  0.40782000  0.03890000  1.0 -0.510582528
O  O33  1  0.24820000  0.26640000  0.58090000  1.0 -0.529344753
O  O34  1  0.26640000  0.24820000  0.91910000  1.0 -0.5409210538
O  O35  1  0.75180000  0.73360000  0.41910000  1.0 -0.5409210538
O  O36  1  0.73360000  0.75180000  0.08090000  1.0 -0.529344753
O  O37  1  0.16400000  0.26000000  0.65160000  1.0 -0.5409210538
O  O38  1  0.26000000  0.16400000  0.84840000  1.0 -0.5409210538
O  O39  1  0.83600000  0.74000000  0.34840000  1.0 -0.5409210538
O  O40  1  0.74000000  0.83600000  0.15160000  1.0 -0.5409210538
