# DDEC6 charges by PACMAN v1.1 (https://github.com/mtap-research/PACMAN-charge/)
data_WOPHIU01_FSR_pacman
_symmetry_space_group_name_H-M   'P 1'
_cell_length_a   19.66260000
_cell_length_b   19.66260000
_cell_length_c   26.42300000
_cell_angle_alpha   55.75050000
_cell_angle_beta   124.25000000
_cell_angle_gamma   150.50800000
_symmetry_Int_Tables_number   1
_chemical_formula_structural   Zn2H24C36N6O11
_chemical_formula_sum   'Zn8 H96 C144 N24 O44'
_cell_volume   4089.76903697
_cell_formula_units_Z   4
loop_
 _symmetry_equiv_pos_site_id
 _symmetry_equiv_pos_as_xyz
  1  'x, y, z'
loop_
 _atom_site_type_symbol
 _atom_site_label
 _atom_site_symmetry_multiplicity
 _atom_site_fract_x
 _atom_site_fract_y
 _atom_site_fract_z
 _atom_site_occupancy
 _atom_site_charge
Zn  Zn1  1  0.49487000  0.16955000  0.70840000  1.0 0.8684657352
Zn  Zn2  1  0.16955000  0.49487000  0.79160000  1.0 0.8684657352
Zn  Zn3  1  0.50513000  0.83045000  0.29160000  1.0 0.8684657352
Zn  Zn4  1  0.83045000  0.50513000  0.20840000  1.0 0.8684657352
Zn  Zn5  1  0.14954000  0.92172000  0.58442000  1.0 0.8453487889
Zn  Zn6  1  0.92172000  0.14954000  0.91558000  1.0 0.8453487889
Zn  Zn7  1  0.85046000  0.07828000  0.41558000  1.0 0.8453487889
Zn  Zn8  1  0.07828000  0.85046000  0.08442000  1.0 0.8453487889
H  H1  1  0.46080000  0.56220000  0.89010000  1.0 0.1414431274
H  H2  1  0.56220000  0.46080000  0.60990000  1.0 0.1414431274
H  H3  1  0.53920000  0.43780000  0.10990000  1.0 0.1414431274
H  H4  1  0.43780000  0.53920000  0.39010000  1.0 0.1414431274
H  H5  1  0.55390000  0.39590000  0.99080000  1.0 0.1414431274
H  H6  1  0.39590000  0.55390000  0.50920000  1.0 0.1414431274
H  H7  1  0.44610000  0.60410000  0.00920000  1.0 0.1414431274
H  H8  1  0.60410000  0.44610000  0.49080000  1.0 0.1414431274
H  H9  1  0.19190000  0.17750000  0.99420000  1.0 0.1282762872
H  H10  1  0.17750000  0.19190000  0.50580000  1.0 0.1282762872
H  H11  1  0.80810000  0.82250000  0.00580000  1.0 0.1282762872
H  H12  1  0.82250000  0.80810000  0.49420000  1.0 0.1282762872
H  H13  1  0.63430000  0.69790000  0.83820000  1.0 0.1126448001
H  H14  1  0.69790000  0.63430000  0.66180000  1.0 0.1126448001
H  H15  1  0.36570000  0.30210000  0.16180000  1.0 0.1126448001
H  H16  1  0.30210000  0.36570000  0.33820000  1.0 0.1126448001
H  H17  1  0.69900000  0.76360000  0.89210000  1.0 0.1126448001
H  H18  1  0.76360000  0.69900000  0.60790000  1.0 0.1212414896
H  H19  1  0.30100000  0.23640000  0.10790000  1.0 0.1126448001
H  H20  1  0.23640000  0.30100000  0.39210000  1.0 0.1126448001
H  H21  1  0.79920000  0.73000000  0.83750000  1.0 0.1414431274
H  H22  1  0.73000000  0.79920000  0.66250000  1.0 0.1414431274
H  H23  1  0.20080000  0.27000000  0.16250000  1.0 0.1414431274
H  H24  1  0.27000000  0.20080000  0.33750000  1.0 0.1414431274
H  H25  1  0.19820000  0.12120000  0.84470000  1.0 0.1212414896
H  H26  1  0.12120000  0.19820000  0.65530000  1.0 0.1212414896
H  H27  1  0.80180000  0.87880000  0.15530000  1.0 0.1212414896
H  H28  1  0.87880000  0.80180000  0.34470000  1.0 0.1212414896
H  H29  1  0.15770000  0.16850000  0.87570000  1.0 0.1212414896
H  H30  1  0.16850000  0.15770000  0.62430000  1.0 0.1212414896
H  H31  1  0.84230000  0.83150000  0.12430000  1.0 0.1212414896
H  H32  1  0.83150000  0.84230000  0.37570000  1.0 0.1212414896
H  H33  1  0.93190000  0.99250000  0.89130000  1.0 0.1414431274
H  H34  1  0.99250000  0.93190000  0.60870000  1.0 0.1414431274
H  H35  1  0.06810000  0.00750000  0.10870000  1.0 0.1414431274
H  H36  1  0.00750000  0.06810000  0.39130000  1.0 0.1414431274
H  H37  1  0.12130000  0.93070000  0.84590000  1.0 0.1126448001
H  H38  1  0.93070000  0.12130000  0.65410000  1.0 0.1126448001
H  H39  1  0.87870000  0.06930000  0.15410000  1.0 0.1126448001
H  H40  1  0.06930000  0.87870000  0.34590000  1.0 0.1126448001
H  H41  1  0.06650000  0.95710000  0.77670000  1.0 0.1126448001
H  H42  1  0.95710000  0.06650000  0.72330000  1.0 0.1126448001
H  H43  1  0.93350000  0.04290000  0.22330000  1.0 0.1126448001
H  H44  1  0.04290000  0.93350000  0.27670000  1.0 0.1126448001
H  H45  1  0.74390000  0.52930000  0.78740000  1.0 0.1488646752
H  H46  1  0.52930000  0.74390000  0.71260000  1.0 0.1488646752
H  H47  1  0.25610000  0.47070000  0.21260000  1.0 0.1488646752
H  H48  1  0.47070000  0.25610000  0.28740000  1.0 0.1488646752
H  H49  1  0.95220000  0.64040000  0.70130000  1.0 0.1414431274
H  H50  1  0.64040000  0.95220000  0.79870000  1.0 0.1414431274
H  H51  1  0.04780000  0.35960000  0.29870000  1.0 0.1414431274
H  H52  1  0.35960000  0.04780000  0.20130000  1.0 0.1414431274
H  H53  1  0.14560000  0.92420000  0.77360000  1.0 0.1282762872
H  H54  1  0.92420000  0.14560000  0.72640000  1.0 0.1282762872
H  H55  1  0.85440000  0.07580000  0.22640000  1.0 0.1212414896
H  H56  1  0.07580000  0.85440000  0.27360000  1.0 0.1282762872
H  H57  1  0.37490000  0.91550000  0.71600000  1.0 0.1212414896
H  H58  1  0.91550000  0.37490000  0.78400000  1.0 0.1212414896
H  H59  1  0.62510000  0.08450000  0.28400000  1.0 0.1212414896
H  H60  1  0.08450000  0.62510000  0.21600000  1.0 0.1212414896
H  H61  1  0.38560000  0.85040000  0.67520000  1.0 0.1414431274
H  H62  1  0.85040000  0.38560000  0.82480000  1.0 0.1414431274
H  H63  1  0.61440000  0.14960000  0.32480000  1.0 0.1414431274
H  H64  1  0.14960000  0.61440000  0.17520000  1.0 0.1414431274
H  H65  1  0.68320000  0.24740000  0.58350000  1.0 0.1282762872
H  H66  1  0.24740000  0.68320000  0.91650000  1.0 0.1282762872
H  H67  1  0.31680000  0.75260000  0.41650000  1.0 0.1282762872
H  H68  1  0.75260000  0.31680000  0.08350000  1.0 0.1282762872
H  H69  1  0.64490000  0.29130000  0.62230000  1.0 0.1282762872
H  H70  1  0.29130000  0.64490000  0.87770000  1.0 0.1282762872
H  H71  1  0.35510000  0.70870000  0.37770000  1.0 0.1282762872
H  H72  1  0.70870000  0.35510000  0.12230000  1.0 0.1282762872
H  H73  1  0.54490000  0.81330000  0.54860000  1.0 0.1488646752
H  H74  1  0.81330000  0.54490000  0.95140000  1.0 0.1414431274
H  H75  1  0.45510000  0.18670000  0.45140000  1.0 0.1414431274
H  H76  1  0.18670000  0.45510000  0.04860000  1.0 0.1488646752
H  H77  1  0.64570000  0.85590000  0.49760000  1.0 0.1126448001
H  H78  1  0.85590000  0.64570000  0.00240000  1.0 0.1126448001
H  H79  1  0.35430000  0.14410000  0.50240000  1.0 0.1126448001
H  H80  1  0.14410000  0.35430000  0.99760000  1.0 0.1126448001
H  H81  1  0.91280000  0.25260000  0.45080000  1.0 0.1212414896
H  H82  1  0.25260000  0.91280000  0.04920000  1.0 0.1212414896
H  H83  1  0.08720000  0.74740000  0.54920000  1.0 0.1212414896
H  H84  1  0.74740000  0.08720000  0.95080000  1.0 0.1212414896
H  H85  1  0.82670000  0.22190000  0.50420000  1.0 0.1282762872
H  H86  1  0.22190000  0.82670000  0.99580000  1.0 0.1282762872
H  H87  1  0.17330000  0.77810000  0.49580000  1.0 0.1282762872
H  H88  1  0.77810000  0.17330000  0.00420000  1.0 0.1282762872
H  H89  1  0.81790000  0.25670000  0.60710000  1.0 0.2791849399
H  H90  1  0.25670000  0.81790000  0.89290000  1.0 0.2791849399
H  H91  1  0.18210000  0.74330000  0.39290000  1.0 0.2791849399
H  H92  1  0.74330000  0.18210000  0.10710000  1.0 0.2791849399
H  H93  1  0.85200000  0.24720000  0.57530000  1.0 0.2791849399
H  H94  1  0.24720000  0.85200000  0.92470000  1.0 0.2791849399
H  H95  1  0.14800000  0.75280000  0.42470000  1.0 0.2791849399
H  H96  1  0.75280000  0.14800000  0.07530000  1.0 0.2791849399
C  C1  1  0.20871000  0.35029000  0.91580000  1.0 0.5857398199
C  C2  1  0.35029000  0.20871000  0.58420000  1.0 0.5857398199
C  C3  1  0.79129000  0.64971000  0.08420000  1.0 0.5857398199
C  C4  1  0.64971000  0.79129000  0.41580000  1.0 0.5857398199
C  C5  1  0.31116000  0.36664000  0.93880000  1.0 -0.0098484217
C  C6  1  0.36664000  0.31116000  0.56120000  1.0 -0.0098484217
C  C7  1  0.68884000  0.63336000  0.06120000  1.0 -0.0098484217
C  C8  1  0.63336000  0.68884000  0.43880000  1.0 -0.0098484217
C  C9  1  0.43755000  0.48885000  0.91750000  1.0 -0.2192396796
C  C10  1  0.48885000  0.43755000  0.58250000  1.0 -0.2192396796
C  C11  1  0.56245000  0.51115000  0.08250000  1.0 -0.2192396796
C  C12  1  0.51115000  0.56245000  0.41750000  1.0 -0.2192396796
C  C13  1  0.52940000  0.50000000  0.93790000  1.0 0.2449978577
C  C14  1  0.50000000  0.52940000  0.56210000  1.0 0.2449978577
C  C15  1  0.47060000  0.50000000  0.06210000  1.0 0.2449978577
C  C16  1  0.50000000  0.47060000  0.43790000  1.0 0.2449978577
C  C17  1  0.49385000  0.38935000  0.97820000  1.0 -0.2192396796
C  C18  1  0.38935000  0.49385000  0.52180000  1.0 -0.2192396796
C  C19  1  0.50615000  0.61065000  0.02180000  1.0 -0.2192396796
C  C20  1  0.61065000  0.50615000  0.47820000  1.0 -0.2192396796
C  C21  1  0.36577000  0.26763000  0.99950000  1.0 -0.0098484217
C  C22  1  0.26763000  0.36577000  0.50050000  1.0 -0.0098484217
C  C23  1  0.63423000  0.73237000  0.00050000  1.0 -0.0098484217
C  C24  1  0.73237000  0.63423000  0.49950000  1.0 -0.0098484217
C  C25  1  0.27626000  0.25794000  0.97970000  1.0 -0.1528982049
C  C26  1  0.25794000  0.27626000  0.52030000  1.0 -0.1528982049
C  C27  1  0.72374000  0.74206000  0.02030000  1.0 -0.1528982049
C  C28  1  0.74206000  0.72374000  0.47970000  1.0 -0.1528982049
C  C29  1  0.32090000  0.14430000  0.04020000  1.0 0.5646904396
C  C30  1  0.14430000  0.32090000  0.45980000  1.0 0.5646904396
C  C31  1  0.67910000  0.85570000  0.95980000  1.0 0.5646904396
C  C32  1  0.85570000  0.67910000  0.54020000  1.0 0.5646904396
C  C33  1  0.69950000  0.72870000  0.87740000  1.0 -0.0607483326
C  C34  1  0.72870000  0.69950000  0.62260000  1.0 -0.0607483326
C  C35  1  0.30050000  0.27130000  0.12260000  1.0 -0.0607483326
C  C36  1  0.27130000  0.30050000  0.37740000  1.0 -0.0607483326
C  C37  1  0.84480000  0.84180000  0.86880000  1.0 0.1011733846
C  C38  1  0.84180000  0.84480000  0.63120000  1.0 0.1011733846
C  C39  1  0.15520000  0.15820000  0.13120000  1.0 0.1011733846
C  C40  1  0.15820000  0.15520000  0.36880000  1.0 0.1011733846
C  C41  1  0.87220000  0.81760000  0.84680000  1.0 -0.1866817786
C  C42  1  0.81760000  0.87220000  0.65320000  1.0 -0.1866817786
C  C43  1  0.12780000  0.18240000  0.15320000  1.0 -0.1866817786
C  C44  1  0.18240000  0.12780000  0.34680000  1.0 -0.1866817786
C  C45  1  0.00480000  0.92060000  0.83890000  1.0 0.0817431925
C  C46  1  0.92060000  0.00480000  0.66110000  1.0 0.0817431925
C  C47  1  0.99520000  0.07940000  0.16110000  1.0 0.0817431925
C  C48  1  0.07940000  0.99520000  0.33890000  1.0 0.0817431925
C  C49  1  0.10810000  0.05010000  0.85020000  1.0 -0.1615406661
C  C50  1  0.05010000  0.10810000  0.64980000  1.0 -0.1615406661
C  C51  1  0.89190000  0.94990000  0.14980000  1.0 -0.1615406661
C  C52  1  0.94990000  0.89190000  0.35020000  1.0 -0.1615406661
C  C53  1  0.08450000  0.07850000  0.86900000  1.0 -0.0692842346
C  C54  1  0.07850000  0.08450000  0.63100000  1.0 -0.0692842346
C  C55  1  0.91550000  0.92150000  0.13100000  1.0 -0.0692842346
C  C56  1  0.92150000  0.91550000  0.36900000  1.0 -0.0692842346
C  C57  1  0.94920000  0.97320000  0.87870000  1.0 -0.141943158
C  C58  1  0.97320000  0.94920000  0.62130000  1.0 -0.141943158
C  C59  1  0.05080000  0.02680000  0.12130000  1.0 -0.141943158
C  C60  1  0.02680000  0.05080000  0.37870000  1.0 -0.141943158
C  C61  1  0.04070000  0.89970000  0.81750000  1.0 -0.0692842346
C  C62  1  0.89970000  0.04070000  0.68250000  1.0 -0.0692842346
C  C63  1  0.95930000  0.10030000  0.18250000  1.0 -0.0692842346
C  C64  1  0.10030000  0.95930000  0.31750000  1.0 -0.0692842346
C  C65  1  0.94400000  0.73260000  0.78470000  1.0 0.2269194262
C  C66  1  0.73260000  0.94400000  0.71530000  1.0 0.2269194262
C  C67  1  0.05600000  0.26740000  0.21530000  1.0 0.2269194262
C  C68  1  0.26740000  0.05600000  0.28470000  1.0 0.2269194262
C  C69  1  0.82540000  0.59640000  0.77410000  1.0 -0.2192396796
C  C70  1  0.59640000  0.82540000  0.72590000  1.0 -0.2192396796
C  C71  1  0.17460000  0.40360000  0.22590000  1.0 -0.2192396796
C  C72  1  0.40360000  0.17460000  0.27410000  1.0 -0.2192396796
C  C73  1  0.82810000  0.56030000  0.74360000  1.0 0.0119232206
C  C74  1  0.56030000  0.82810000  0.75640000  1.0 0.0119232206
C  C75  1  0.17190000  0.43970000  0.25640000  1.0 0.0119232206
C  C76  1  0.43970000  0.17190000  0.24360000  1.0 0.0119232206
C  C77  1  0.95010000  0.66310000  0.72280000  1.0 -0.141943158
C  C78  1  0.66310000  0.95010000  0.77720000  1.0 -0.141943158
C  C79  1  0.04990000  0.33690000  0.27720000  1.0 -0.141943158
C  C80  1  0.33690000  0.04990000  0.22280000  1.0 -0.141943158
C  C81  1  0.06579000  0.79561000  0.73340000  1.0 -0.0030330996
C  C82  1  0.79561000  0.06579000  0.76660000  1.0 -0.0030330996
C  C83  1  0.93421000  0.20439000  0.26660000  1.0 -0.0030330996
C  C84  1  0.20439000  0.93421000  0.23340000  1.0 -0.0030330996
C  C85  1  0.06560000  0.83360000  0.76560000  1.0 -0.2697667493
C  C86  1  0.83360000  0.06560000  0.73440000  1.0 -0.2697667493
C  C87  1  0.93440000  0.16640000  0.23440000  1.0 -0.2697667493
C  C88  1  0.16640000  0.93440000  0.26560000  1.0 -0.2697667493
C  C89  1  0.70260000  0.41300000  0.73180000  1.0 0.5132246302
C  C90  1  0.41300000  0.70260000  0.76820000  1.0 0.5132246302
C  C91  1  0.29740000  0.58700000  0.26820000  1.0 0.5132246302
C  C92  1  0.58700000  0.29740000  0.23180000  1.0 0.5132246302
C  C93  1  0.19909000  0.90791000  0.71140000  1.0 0.5684485422
C  C94  1  0.90791000  0.19909000  0.78860000  1.0 0.5684485422
C  C95  1  0.80091000  0.09209000  0.28860000  1.0 0.5684485422
C  C96  1  0.09209000  0.80091000  0.21140000  1.0 0.5684485422
C  C97  1  0.43513000  0.98187000  0.68800000  1.0 0.0920031858
C  C98  1  0.98187000  0.43513000  0.81200000  1.0 0.0920031858
C  C99  1  0.56487000  0.01813000  0.31200000  1.0 0.0920031858
C  C100  1  0.01813000  0.56487000  0.18800000  1.0 0.0920031858
C  C101  1  0.44347000  0.94293000  0.66460000  1.0 -0.1615406661
C  C102  1  0.94293000  0.44347000  0.83540000  1.0 -0.1615406661
C  C103  1  0.55653000  0.05707000  0.33540000  1.0 -0.1615406661
C  C104  1  0.05707000  0.55653000  0.16460000  1.0 -0.1615406661
C  C105  1  0.53630000  0.03870000  0.62570000  1.0 0.0615417795
C  C106  1  0.03870000  0.53630000  0.87430000  1.0 0.0615417795
C  C107  1  0.46370000  0.96130000  0.37430000  1.0 0.0615417795
C  C108  1  0.96130000  0.46370000  0.12570000  1.0 0.0615417795
C  C109  1  0.61780000  0.17700000  0.60940000  1.0 -0.2126166089
C  C110  1  0.17700000  0.61780000  0.89060000  1.0 -0.2126166089
C  C111  1  0.38220000  0.82300000  0.39060000  1.0 -0.2126166089
C  C112  1  0.82300000  0.38220000  0.10940000  1.0 -0.2126166089
C  C113  1  0.59520000  0.20240000  0.63410000  1.0 0.0920031858
C  C114  1  0.20240000  0.59520000  0.86590000  1.0 0.0920031858
C  C115  1  0.40480000  0.79760000  0.36590000  1.0 0.0920031858
C  C116  1  0.79760000  0.40480000  0.13410000  1.0 0.0920031858
C  C117  1  0.54160000  0.99460000  0.59970000  1.0 0.1805528314
C  C118  1  0.99460000  0.54160000  0.90030000  1.0 0.1805528314
C  C119  1  0.45840000  0.00540000  0.40030000  1.0 0.1805528314
C  C120  1  0.00540000  0.45840000  0.09970000  1.0 0.1805528314
C  C121  1  0.60100000  0.98260000  0.56030000  1.0 0.1805528314
C  C122  1  0.98260000  0.60100000  0.93970000  1.0 0.1805528314
C  C123  1  0.39900000  0.01740000  0.43970000  1.0 0.1805528314
C  C124  1  0.01740000  0.39900000  0.06030000  1.0 0.1805528314
C  C125  1  0.67550000  0.01710000  0.53020000  1.0 0.0749676959
C  C126  1  0.01710000  0.67550000  0.96980000  1.0 0.0749676959
C  C127  1  0.32450000  0.98290000  0.46980000  1.0 0.0749676959
C  C128  1  0.98290000  0.32450000  0.03020000  1.0 0.0749676959
C  C129  1  0.61980000  0.90360000  0.52870000  1.0 -0.1694556823
C  C130  1  0.90360000  0.61980000  0.97130000  1.0 -0.1694556823
C  C131  1  0.38020000  0.09640000  0.47130000  1.0 -0.1694556823
C  C132  1  0.09640000  0.38020000  0.02870000  1.0 -0.1694556823
C  C133  1  0.67920000  0.92980000  0.49710000  1.0 0.0817431925
C  C134  1  0.92980000  0.67920000  0.00290000  1.0 0.0817431925
C  C135  1  0.32080000  0.07020000  0.50290000  1.0 0.0817431925
C  C136  1  0.07020000  0.32080000  0.99710000  1.0 0.0817431925
C  C137  1  0.83670000  0.16250000  0.47020000  1.0 0.0817431925
C  C138  1  0.16250000  0.83670000  0.02980000  1.0 0.0817431925
C  C139  1  0.16330000  0.83750000  0.52980000  1.0 0.0817431925
C  C140  1  0.83750000  0.16330000  0.97020000  1.0 0.0817431925
C  C141  1  0.78510000  0.14450000  0.50210000  1.0 -0.1694556823
C  C142  1  0.14450000  0.78510000  0.99790000  1.0 -0.1694556823
C  C143  1  0.21490000  0.85550000  0.49790000  1.0 -0.1694556823
C  C144  1  0.85550000  0.21490000  0.00210000  1.0 -0.1694556823
N  N1  1  0.50829000  0.10891000  0.67280000  1.0 -0.238309977
N  N2  1  0.10891000  0.50829000  0.82720000  1.0 -0.238309977
N  N3  1  0.49171000  0.89109000  0.32720000  1.0 -0.238309977
N  N4  1  0.89109000  0.49171000  0.17280000  1.0 -0.238309977
N  N5  1  0.64907000  0.07013000  0.58190000  1.0 0.0817431925
N  N6  1  0.07013000  0.64907000  0.91810000  1.0 0.0817431925
N  N7  1  0.35093000  0.92987000  0.41810000  1.0 0.0817431925
N  N8  1  0.92987000  0.35093000  0.08190000  1.0 0.0817431925
N  N9  1  0.43255000  0.86785000  0.59010000  1.0 -0.2265044017
N  N10  1  0.86785000  0.43255000  0.90990000  1.0 -0.2265044017
N  N11  1  0.56745000  0.13215000  0.40990000  1.0 -0.2265044017
N  N12  1  0.13215000  0.56745000  0.09010000  1.0 -0.2265044017
N  N13  1  0.47000000  0.85980000  0.56520000  1.0 -0.238309977
N  N14  1  0.85980000  0.47000000  0.93480000  1.0 -0.238309977
N  N15  1  0.53000000  0.14020000  0.43480000  1.0 -0.238309977
N  N16  1  0.14020000  0.53000000  0.06520000  1.0 -0.238309977
N  N17  1  0.79180000  0.20980000  0.58900000  1.0 -0.4630766897
N  N18  1  0.20980000  0.79180000  0.91100000  1.0 -0.4630766897
N  N19  1  0.20820000  0.79020000  0.41100000  1.0 -0.4630766897
N  N20  1  0.79020000  0.20820000  0.08900000  1.0 -0.4630766897
N  N21  1  0.78278000  0.05622000  0.46560000  1.0 -0.238309977
N  N22  1  0.05622000  0.78278000  0.03440000  1.0 -0.238309977
N  N23  1  0.21722000  0.94378000  0.53440000  1.0 -0.238309977
N  N24  1  0.94378000  0.21722000  0.96560000  1.0 -0.238309977
O  O1  1  0.09158000  0.23082000  0.93450000  1.0 -0.5492172552
O  O2  1  0.23082000  0.09158000  0.56550000  1.0 -0.5492172552
O  O3  1  0.90842000  0.76918000  0.06550000  1.0 -0.5492172552
O  O4  1  0.76918000  0.90842000  0.43450000  1.0 -0.5492172552
O  O5  1  0.24255000  0.45085000  0.88280000  1.0 -0.5415117233
O  O6  1  0.45085000  0.24255000  0.61720000  1.0 -0.5415117233
O  O7  1  0.75745000  0.54915000  0.11720000  1.0 -0.5415117233
O  O8  1  0.54915000  0.75745000  0.38280000  1.0 -0.5415117233
O  O9  1  0.38965000  0.14275000  0.04930000  1.0 -0.5650318576
O  O10  1  0.14275000  0.38965000  0.45070000  1.0 -0.5595763438
O  O11  1  0.61035000  0.85725000  0.95070000  1.0 -0.5650318576
O  O12  1  0.85725000  0.61035000  0.54930000  1.0 -0.5595763438
O  O13  1  0.21395000  0.04785000  0.06240000  1.0 -0.5415117233
O  O14  1  0.04785000  0.21395000  0.43760000  1.0 -0.5415117233
O  O15  1  0.78605000  0.95215000  0.93760000  1.0 -0.5415117233
O  O16  1  0.95215000  0.78605000  0.56240000  1.0 -0.5415117233
O  O17  1  0.66040000  0.61600000  0.92170000  1.0 -0.1821389584
O  O18  1  0.61600000  0.66040000  0.57830000  1.0 -0.1821389584
O  O19  1  0.33960000  0.38400000  0.07830000  1.0 -0.1821389584
O  O20  1  0.38400000  0.33960000  0.42170000  1.0 -0.1821389584
O  O21  1  0.92875000  0.75905000  0.81410000  1.0 -0.1821389584
O  O22  1  0.75905000  0.92875000  0.68590000  1.0 -0.1821389584
O  O23  1  0.07125000  0.24095000  0.18590000  1.0 -0.1821389584
O  O24  1  0.24095000  0.07125000  0.31410000  1.0 -0.1821389584
O  O25  1  0.30890000  0.02250000  0.72930000  1.0 -0.4812878443
O  O26  1  0.02250000  0.30890000  0.77070000  1.0 -0.4812878443
O  O27  1  0.69110000  0.97750000  0.27070000  1.0 -0.4812878443
O  O28  1  0.97750000  0.69110000  0.22930000  1.0 -0.4812878443
O  O29  1  0.19086000  0.87794000  0.67480000  1.0 -0.5595763438
O  O30  1  0.87794000  0.19086000  0.82520000  1.0 -0.5595763438
O  O31  1  0.80914000  0.12206000  0.32520000  1.0 -0.5595763438
O  O32  1  0.12206000  0.80914000  0.17480000  1.0 -0.5595763438
O  O33  1  0.71346000  0.38254000  0.70940000  1.0 -0.5009779273
O  O34  1  0.38254000  0.71346000  0.79060000  1.0 -0.5009779273
O  O35  1  0.28654000  0.61746000  0.29060000  1.0 -0.5009779273
O  O36  1  0.61746000  0.28654000  0.20940000  1.0 -0.5009779273
O  O37  1  0.59010000  0.32530000  0.74430000  1.0 -0.4812878443
O  O38  1  0.32530000  0.59010000  0.75570000  1.0 -0.4742357446
O  O39  1  0.40990000  0.67470000  0.25570000  1.0 -0.4742357446
O  O40  1  0.67470000  0.40990000  0.24430000  1.0 -0.4742357446
O  O41  1  0.54586000  0.10434000  0.80050000  1.0 -0.3017524494
O  O42  1  0.10434000  0.54586000  0.69950000  1.0 -0.3017524494
O  O43  1  0.45414000  0.89566000  0.19950000  1.0 -0.3017524494
O  O44  1  0.89566000  0.45414000  0.30050000  1.0 -0.3017524494
