# DDEC6 charges by PACMAN v1.1 (https://github.com/mtap-research/PACMAN-charge/)
data_WOPROK_FSR_pacman
_symmetry_space_group_name_H-M   'P 1'
_cell_length_a   12.64300000
_cell_length_b   13.94400000
_cell_length_c   14.67280000
_cell_angle_alpha   114.73900000
_cell_angle_beta   94.11150000
_cell_angle_gamma   93.12400000
_symmetry_Int_Tables_number   1
_chemical_formula_structural   La2CuH26C32(N2O7)2
_chemical_formula_sum   'La4 Cu2 H52 C64 N8 O28'
_cell_volume   2333.06267316
_cell_formula_units_Z   2
loop_
 _symmetry_equiv_pos_site_id
 _symmetry_equiv_pos_as_xyz
  1  'x, y, z'
loop_
 _atom_site_type_symbol
 _atom_site_label
 _atom_site_symmetry_multiplicity
 _atom_site_fract_x
 _atom_site_fract_y
 _atom_site_fract_z
 _atom_site_occupancy
 _atom_site_charge
La  La1  1  0.06831000  0.65564000  0.74892000  1.0 1.81613118
La  La2  1  0.93169000  0.34436000  0.25108000  1.0 1.81613118
La  La3  1  0.06766000  0.62029000  0.46663000  1.0 1.8331726843
La  La4  1  0.93234000  0.37971000  0.53337000  1.0 1.8331726843
Cu  Cu1  1  0.45225000  0.18731000  0.77455000  1.0 0.3804304356
Cu  Cu2  1  0.54775000  0.81269000  0.22545000  1.0 0.3804304356
H  H1  1  0.36800000  0.73460000  0.58020000  1.0 0.1515540882
H  H2  1  0.63200000  0.26540000  0.41980000  1.0 0.1515540882
H  H3  1  0.51190000  0.82400000  0.54810000  1.0 0.1410152985
H  H4  1  0.48810000  0.17600000  0.45190000  1.0 0.1410152985
H  H5  1  0.65190000  0.91450000  0.54280000  1.0 0.1306787882
H  H6  1  0.34810000  0.08550000  0.45720000  1.0 0.1306787882
H  H7  1  0.78560000  0.02540000  0.52290000  1.0 0.1410152985
H  H8  1  0.21440000  0.97460000  0.47710000  1.0 0.1410152985
H  H9  1  0.27630000  0.06300000  0.86460000  1.0 0.170348628
H  H10  1  0.72370000  0.93700000  0.13540000  1.0 0.170348628
H  H11  1  0.18120000  0.00830000  0.77610000  1.0 0.170348628
H  H12  1  0.81880000  0.99170000  0.22390000  1.0 0.170348628
H  H13  1  0.25200000  0.11080000  0.78420000  1.0 0.1410152985
H  H14  1  0.74800000  0.88920000  0.21580000  1.0 0.1410152985
H  H15  1  0.58510000  0.34160000  0.66690000  1.0 0.170348628
H  H16  1  0.41490000  0.65840000  0.33310000  1.0 0.170348628
H  H17  1  0.69620000  0.36330000  0.73490000  1.0 0.1798743361
H  H18  1  0.30380000  0.63670000  0.26510000  1.0 0.1798743361
H  H19  1  0.58850000  0.33630000  0.77390000  1.0 0.1410152985
H  H20  1  0.41150000  0.66370000  0.22610000  1.0 0.1410152985
H  H21  1  0.57050000  0.46240000  0.19450000  1.0 0.1410152985
H  H22  1  0.42950000  0.53760000  0.80550000  1.0 0.1410152985
H  H23  1  0.41350000  0.47280000  0.10620000  1.0 0.1410152985
H  H24  1  0.58650000  0.52720000  0.89380000  1.0 0.1410152985
H  H25  1  0.26220000  0.45680000  0.01820000  1.0 0.1410152985
H  H26  1  0.73780000  0.54320000  0.98180000  1.0 0.1410152985
H  H27  1  0.12910000  0.47070000  0.90640000  1.0 0.1410152985
H  H28  1  0.87090000  0.52930000  0.09360000  1.0 0.1410152985
H  H29  1  0.62880000  0.11110000  0.92690000  1.0 0.170348628
H  H30  1  0.37120000  0.88890000  0.07310000  1.0 0.170348628
H  H31  1  0.72940000  0.19240000  0.94040000  1.0 0.170348628
H  H32  1  0.27060000  0.80760000  0.05960000  1.0 0.170348628
H  H33  1  0.64210000  0.15790000  0.84520000  1.0 0.1306787882
H  H34  1  0.35790000  0.84210000  0.15480000  1.0 0.1306787882
H  H35  1  0.32550000  0.28860000  0.60900000  1.0 0.170348628
H  H36  1  0.67450000  0.71140000  0.39100000  1.0 0.170348628
H  H37  1  0.21220000  0.22430000  0.59480000  1.0 0.170348628
H  H38  1  0.78780000  0.77570000  0.40520000  1.0 0.170348628
H  H39  1  0.31820000  0.18160000  0.62460000  1.0 0.1306787882
H  H40  1  0.68180000  0.81840000  0.37540000  1.0 0.1306787882
H  H41  1  0.88810000  0.91170000  0.64820000  1.0 0.170348628
H  H42  1  0.11190000  0.08830000  0.35180000  1.0 0.170348628
H  H43  1  0.79650000  0.87400000  0.69910000  1.0 0.1607588598
H  H44  1  0.20350000  0.12600000  0.30090000  1.0 0.1607588598
H  H45  1  0.81200000  0.80550000  0.58300000  1.0 0.1607588598
H  H46  1  0.18800000  0.19450000  0.41700000  1.0 0.1607588598
H  H47  1  0.30740000  0.41020000  0.23670000  1.0 0.1515540882
H  H48  1  0.69260000  0.58980000  0.76330000  1.0 0.1515540882
H  H49  1  0.24670000  0.31340000  0.24930000  1.0 0.170348628
H  H50  1  0.75330000  0.68660000  0.75070000  1.0 0.170348628
H  H51  1  0.34840000  0.37950000  0.32590000  1.0 0.1515540882
H  H52  1  0.65160000  0.62050000  0.67410000  1.0 0.1515540882
C  C1  1  0.32770000  0.97610000  0.72820000  1.0 0.3212599957
C  C2  1  0.67230000  0.02390000  0.27180000  1.0 0.3212599957
C  C3  1  0.31120000  0.86530000  0.68290000  1.0 -0.1022299474
C  C4  1  0.68880000  0.13470000  0.31710000  1.0 -0.1022299474
C  C5  1  0.37950000  0.80970000  0.61430000  1.0 -0.0221057495
C  C6  1  0.62050000  0.19030000  0.38570000  1.0 -0.0221057495
C  C7  1  0.46430000  0.86210000  0.59480000  1.0 -0.1879626807
C  C8  1  0.53570000  0.13790000  0.40520000  1.0 -0.1879626807
C  C9  1  0.47870000  0.97200000  0.64500000  1.0 0.1607588598
C  C10  1  0.52130000  0.02800000  0.35500000  1.0 0.1607588598
C  C11  1  0.56770000  0.03540000  0.62990000  1.0 0.1607588598
C  C12  1  0.43230000  0.96460000  0.37010000  1.0 0.1607588598
C  C13  1  0.65010000  0.98930000  0.57320000  1.0 -0.1879626807
C  C14  1  0.34990000  0.01070000  0.42680000  1.0 -0.1879626807
C  C15  1  0.72930000  0.05510000  0.56220000  1.0 -0.0470442681
C  C16  1  0.27070000  0.94490000  0.43780000  1.0 -0.0470442681
C  C17  1  0.72670000  0.16440000  0.60850000  1.0 -0.1074522494
C  C18  1  0.27330000  0.83560000  0.39150000  1.0 -0.1074522494
C  C19  1  0.64180000  0.20660000  0.66460000  1.0 0.3100149834
C  C20  1  0.35820000  0.79340000  0.33540000  1.0 0.3100149834
C  C21  1  0.25300000  0.04540000  0.79380000  1.0 -0.4972021377
C  C22  1  0.74700000  0.95460000  0.20620000  1.0 -0.4972021377
C  C23  1  0.22440000  0.80180000  0.70340000  1.0 0.6077639961
C  C24  1  0.77560000  0.19820000  0.29660000  1.0 0.6077639961
C  C25  1  0.62660000  0.32190000  0.71440000  1.0 -0.5201631433
C  C26  1  0.37340000  0.67810000  0.28560000  1.0 -0.5201631433
C  C27  1  0.81340000  0.23120000  0.59170000  1.0 0.5615287179
C  C28  1  0.18660000  0.76880000  0.40830000  1.0 0.5615287179
C  C29  1  0.59180000  0.26520000  0.97630000  1.0 0.3212599957
C  C30  1  0.40820000  0.73480000  0.02370000  1.0 0.3212599957
C  C31  1  0.62260000  0.33900000  0.07680000  1.0 -0.1074522494
C  C32  1  0.37740000  0.66100000  0.92320000  1.0 -0.1074522494
C  C33  1  0.55340000  0.41490000  0.12540000  1.0 -0.0382595307
C  C34  1  0.44660000  0.58510000  0.87460000  1.0 -0.0382595307
C  C35  1  0.46080000  0.42130000  0.07390000  1.0 -0.2024027205
C  C36  1  0.53920000  0.57870000  0.92610000  1.0 -0.2024027205
C  C37  1  0.43800000  0.34930000  0.97190000  1.0 0.170348628
C  C38  1  0.56200000  0.65070000  0.02810000  1.0 0.170348628
C  C39  1  0.34560000  0.35660000  0.90830000  1.0 0.1607588598
C  C40  1  0.65440000  0.64340000  0.09170000  1.0 0.1607588598
C  C41  1  0.26390000  0.41970000  0.94730000  1.0 -0.1879626807
C  C42  1  0.73610000  0.58030000  0.05270000  1.0 -0.1879626807
C  C43  1  0.18530000  0.42770000  0.88100000  1.0 -0.0221057495
C  C44  1  0.81470000  0.57230000  0.11900000  1.0 -0.0221057495
C  C45  1  0.18790000  0.37300000  0.77700000  1.0 -0.1201310998
C  C46  1  0.81210000  0.62700000  0.22300000  1.0 -0.1201310998
C  C47  1  0.27080000  0.30740000  0.74200000  1.0 0.3100149834
C  C48  1  0.72920000  0.69260000  0.25800000  1.0 0.3100149834
C  C49  1  0.65340000  0.17360000  0.91700000  1.0 -0.4972021377
C  C50  1  0.34660000  0.82640000  0.08300000  1.0 -0.4972021377
C  C51  1  0.72590000  0.34030000  0.13490000  1.0 0.5615287179
C  C52  1  0.27410000  0.65970000  0.86510000  1.0 0.5615287179
C  C53  1  0.28270000  0.24520000  0.63340000  1.0 -0.5277791267
C  C54  1  0.71730000  0.75480000  0.36660000  1.0 -0.5277791267
C  C55  1  0.10350000  0.38890000  0.70910000  1.0 0.6077639961
C  C56  1  0.89650000  0.61110000  0.29090000  1.0 0.6077639961
C  C57  1  0.84880000  0.85010000  0.65000000  1.0 -0.6069498306
C  C58  1  0.15120000  0.14990000  0.35000000  1.0 -0.6069498306
C  C59  1  0.92440000  0.78760000  0.67970000  1.0 0.7161962444
C  C60  1  0.07560000  0.21240000  0.32030000  1.0 0.7161962444
C  C61  1  0.21400000  0.45850000  0.35350000  1.0 0.7139355594
C  C62  1  0.78600000  0.54150000  0.64650000  1.0 0.7139355594
C  C63  1  0.28530000  0.38400000  0.28550000  1.0 -0.577929253
C  C64  1  0.71470000  0.61600000  0.71450000  1.0 -0.577929253
N  N1  1  0.41050000  0.02680000  0.70900000  1.0 -0.2936821526
N  N2  1  0.58950000  0.97320000  0.29100000  1.0 -0.2936821526
N  N3  1  0.56470000  0.14190000  0.67510000  1.0 -0.2996656767
N  N4  1  0.43530000  0.85810000  0.32490000  1.0 -0.2996656767
N  N5  1  0.50140000  0.27270000  0.92520000  1.0 -0.3076410836
N  N6  1  0.49860000  0.72730000  0.07480000  1.0 -0.3076410836
N  N7  1  0.34660000  0.29960000  0.80740000  1.0 -0.2996656767
N  N8  1  0.65340000  0.70040000  0.19260000  1.0 -0.2996656767
O  O1  1  0.19100000  0.83270000  0.78850000  1.0 -0.5504223353
O  O2  1  0.80900000  0.16730000  0.21150000  1.0 -0.5504223353
O  O3  1  0.18820000  0.71350000  0.63200000  1.0 -0.6025409645
O  O4  1  0.81180000  0.28650000  0.36800000  1.0 -0.6025409645
O  O5  1  0.85990000  0.19170000  0.51370000  1.0 -0.5650232977
O  O6  1  0.14010000  0.80830000  0.48630000  1.0 -0.5650232977
O  O7  1  0.83580000  0.32600000  0.65550000  1.0 -0.5504223353
O  O8  1  0.16420000  0.67400000  0.34450000  1.0 -0.5504223353
O  O9  1  0.80560000  0.30520000  0.08850000  1.0 -0.5434455818
O  O10  1  0.19440000  0.69480000  0.91150000  1.0 -0.5434455818
O  O11  1  0.73120000  0.38020000  0.23010000  1.0 -0.5598599261
O  O12  1  0.26880000  0.61980000  0.76990000  1.0 -0.5598599261
O  O13  1  0.08000000  0.31970000  0.62110000  1.0 -0.5277791267
O  O14  1  0.92000000  0.68030000  0.37890000  1.0 -0.5277791267
O  O15  1  0.05880000  0.47430000  0.74590000  1.0 -0.577929253
O  O16  1  0.94120000  0.52570000  0.25410000  1.0 -0.577929253
O  O17  1  0.08210000  0.51760000  0.57460000  1.0 -0.8074393219
O  O18  1  0.91790000  0.48240000  0.42540000  1.0 -0.8074393219
O  O19  1  0.96660000  0.71450000  0.61110000  1.0 -0.6355258173
O  O20  1  0.03340000  0.28550000  0.38890000  1.0 -0.6355258173
O  O21  1  0.94350000  0.80310000  0.77040000  1.0 -0.5860631114
O  O22  1  0.05650000  0.19690000  0.22960000  1.0 -0.5860631114
O  O23  1  0.25130000  0.53490000  0.43420000  1.0 -0.5598599261
O  O24  1  0.74870000  0.46510000  0.56580000  1.0 -0.5598599261
O  O25  1  0.11460000  0.44420000  0.32530000  1.0 -0.6243017858
O  O26  1  0.88540000  0.55580000  0.67470000  1.0 -0.6243017858
O  O27  1  0.96250000  0.66970000  0.89680000  1.0 -0.2714128142
O  O28  1  0.03750000  0.33030000  0.10320000  1.0 -0.2714128142
