# DDEC6 charges by PACMAN v1.1 (https://github.com/mtap-research/PACMAN-charge/)
data_WOPSOL_ASR_pacman
_symmetry_space_group_name_H-M   'P 1'
_cell_length_a   14.96030000
_cell_length_b   14.96030000
_cell_length_c   14.96030000
_cell_angle_alpha   117.74400000
_cell_angle_beta   117.74400000
_cell_angle_gamma   117.74400000
_symmetry_Int_Tables_number   1
_chemical_formula_structural   FeC4O3
_chemical_formula_sum   'Fe6 C24 O18'
_cell_volume   1288.54689354
_cell_formula_units_Z   6
loop_
 _symmetry_equiv_pos_site_id
 _symmetry_equiv_pos_as_xyz
  1  'x, y, z'
loop_
 _atom_site_type_symbol
 _atom_site_label
 _atom_site_symmetry_multiplicity
 _atom_site_fract_x
 _atom_site_fract_y
 _atom_site_fract_z
 _atom_site_occupancy
 _atom_site_charge
Fe  Fe1  1  0.11583000  0.54328000  0.80286000  1.0 1.0434855613
Fe  Fe2  1  0.54328000  0.80286000  0.11583000  1.0 1.0453095826
Fe  Fe3  1  0.80286000  0.11583000  0.54328000  1.0 1.0453095826
Fe  Fe4  1  0.88417000  0.45672000  0.19714000  1.0 1.0453095826
Fe  Fe5  1  0.45672000  0.19714000  0.88417000  1.0 1.0434855613
Fe  Fe6  1  0.19714000  0.88417000  0.45672000  1.0 1.0434855613
C  C1  1  0.34540000  0.73150000  0.16840000  1.0 0.6301808747
C  C2  1  0.73150000  0.16840000  0.34540000  1.0 0.6301808747
C  C3  1  0.16840000  0.34540000  0.73150000  1.0 0.6301808747
C  C4  1  0.65460000  0.26850000  0.83160000  1.0 0.6301808747
C  C5  1  0.26850000  0.83160000  0.65460000  1.0 0.6301808747
C  C6  1  0.83160000  0.65460000  0.26850000  1.0 0.6301808747
C  C7  1  0.16730000  0.61410000  0.08290000  1.0 -0.1638190803
C  C8  1  0.61410000  0.08290000  0.16730000  1.0 -0.1638190803
C  C9  1  0.08290000  0.16730000  0.61410000  1.0 -0.1654037145
C  C10  1  0.83270000  0.38590000  0.91710000  1.0 -0.1638190803
C  C11  1  0.38590000  0.91710000  0.83270000  1.0 -0.1638190803
C  C12  1  0.91710000  0.83270000  0.38590000  1.0 -0.1638190803
C  C13  1  0.96930000  0.43530000  0.87200000  1.0 0.2567881239
C  C14  1  0.43530000  0.87200000  0.96930000  1.0 0.2567881239
C  C15  1  0.87200000  0.96930000  0.43530000  1.0 0.2567881239
C  C16  1  0.03070000  0.56470000  0.12800000  1.0 0.2567881239
C  C17  1  0.56470000  0.12800000  0.03070000  1.0 0.2567881239
C  C18  1  0.12800000  0.03070000  0.56470000  1.0 0.2567881239
C  C19  1  0.78680000  0.30570000  0.77700000  1.0 -0.0204343521
C  C20  1  0.30570000  0.77700000  0.78680000  1.0 -0.0204343521
C  C21  1  0.77700000  0.78680000  0.30570000  1.0 -0.0204343521
C  C22  1  0.21320000  0.69430000  0.22300000  1.0 -0.0204343521
C  C23  1  0.69430000  0.22300000  0.21320000  1.0 -0.0204343521
C  C24  1  0.22300000  0.21320000  0.69430000  1.0 -0.0204343521
O  O1  1  0.32965000  0.67850000  0.05835000  1.0 -0.5978930501
O  O2  1  0.67850000  0.05835000  0.32965000  1.0 -0.5978930501
O  O3  1  0.05835000  0.32965000  0.67850000  1.0 -0.5978930501
O  O4  1  0.67035000  0.32150000  0.94165000  1.0 -0.5978930501
O  O5  1  0.32150000  0.94165000  0.67035000  1.0 -0.5978930501
O  O6  1  0.94165000  0.67035000  0.32150000  1.0 -0.5978930501
O  O7  1  0.52149000  0.89490000  0.36561000  1.0 -0.5181275614
O  O8  1  0.89490000  0.36561000  0.52149000  1.0 -0.5181275614
O  O9  1  0.36561000  0.52149000  0.89490000  1.0 -0.5181275614
O  O10  1  0.47851000  0.10510000  0.63439000  1.0 -0.5181275614
O  O11  1  0.10510000  0.63439000  0.47851000  1.0 -0.5181275614
O  O12  1  0.63439000  0.47851000  0.10510000  1.0 -0.5181275614
O  O13  1  0.91636000  0.35424000  0.72610000  1.0 -0.630828421
O  O14  1  0.35424000  0.72610000  0.91636000  1.0 -0.630828421
O  O15  1  0.72610000  0.91636000  0.35424000  1.0 -0.630828421
O  O16  1  0.08364000  0.64576000  0.27390000  1.0 -0.630828421
O  O17  1  0.64576000  0.27390000  0.08364000  1.0 -0.630828421
O  O18  1  0.27390000  0.08364000  0.64576000  1.0 -0.630828421
