# DDEC6 charges by PACMAN v1.1 (https://github.com/mtap-research/PACMAN-charge/)
data_WOPSAX01_ASR_pacman
_symmetry_space_group_name_H-M   'P 1'
_cell_length_a   15.25600000
_cell_length_b   15.25600000
_cell_length_c   15.25600000
_cell_angle_alpha   117.78500000
_cell_angle_beta   117.78500000
_cell_angle_gamma   117.78500000
_symmetry_Int_Tables_number   1
_chemical_formula_structural   FeHC4N5O6
_chemical_formula_sum   'Fe6 H6 C24 N30 O36'
_cell_volume   1354.45296536
_cell_formula_units_Z   6
loop_
 _symmetry_equiv_pos_site_id
 _symmetry_equiv_pos_as_xyz
  1  'x, y, z'
loop_
 _atom_site_type_symbol
 _atom_site_label
 _atom_site_symmetry_multiplicity
 _atom_site_fract_x
 _atom_site_fract_y
 _atom_site_fract_z
 _atom_site_occupancy
 _atom_site_charge
Fe  Fe1  1  0.11686000  0.53074000  0.79610000  1.0 0.8918346845
Fe  Fe2  1  0.53074000  0.79610000  0.11686000  1.0 0.8918346845
Fe  Fe3  1  0.79610000  0.11686000  0.53074000  1.0 0.8918346845
Fe  Fe4  1  0.88314000  0.46926000  0.20390000  1.0 0.8918346845
Fe  Fe5  1  0.46926000  0.20390000  0.88314000  1.0 0.8918346845
Fe  Fe6  1  0.20390000  0.88314000  0.46926000  1.0 0.8918346845
H  H1  1  0.66070000  0.19400000  0.63770000  1.0 0.1391612051
H  H2  1  0.19400000  0.63770000  0.66070000  1.0 0.1391612051
H  H3  1  0.63770000  0.66070000  0.19400000  1.0 0.1391612051
H  H4  1  0.33930000  0.80600000  0.36230000  1.0 0.1391612051
H  H5  1  0.80600000  0.36230000  0.33930000  1.0 0.1391612051
H  H6  1  0.36230000  0.33930000  0.80600000  1.0 0.1391612051
C  C1  1  0.35115000  0.74276000  0.17629000  1.0 0.58295063
C  C2  1  0.74276000  0.17629000  0.35115000  1.0 0.58295063
C  C3  1  0.17629000  0.35115000  0.74276000  1.0 0.58295063
C  C4  1  0.64885000  0.25724000  0.82371000  1.0 0.58295063
C  C5  1  0.25724000  0.82371000  0.64885000  1.0 0.58295063
C  C6  1  0.82371000  0.64885000  0.25724000  1.0 0.58295063
C  C7  1  0.16625000  0.61388000  0.08147000  1.0 -0.1401335552
C  C8  1  0.61388000  0.08147000  0.16625000  1.0 -0.1401335552
C  C9  1  0.08147000  0.16625000  0.61388000  1.0 -0.1401335552
C  C10  1  0.83375000  0.38612000  0.91853000  1.0 -0.1401335552
C  C11  1  0.38612000  0.91853000  0.83375000  1.0 -0.1401335552
C  C12  1  0.91853000  0.83375000  0.38612000  1.0 -0.1401335552
C  C13  1  0.97217000  0.44134000  0.87329000  1.0 0.2541774593
C  C14  1  0.44134000  0.87329000  0.97217000  1.0 0.2541774593
C  C15  1  0.87329000  0.97217000  0.44134000  1.0 0.2541774593
C  C16  1  0.02783000  0.55866000  0.12671000  1.0 0.2541774593
C  C17  1  0.55866000  0.12671000  0.02783000  1.0 0.2541774593
C  C18  1  0.12671000  0.02783000  0.55866000  1.0 0.2541774593
C  C19  1  0.80688000  0.32753000  0.79599000  1.0 -0.2418594229
C  C20  1  0.32753000  0.79599000  0.80688000  1.0 -0.2418594229
C  C21  1  0.79599000  0.80688000  0.32753000  1.0 -0.2418594229
C  C22  1  0.19312000  0.67247000  0.20401000  1.0 -0.2418594229
C  C23  1  0.67247000  0.20401000  0.19312000  1.0 -0.2418594229
C  C24  1  0.20401000  0.19312000  0.67247000  1.0 -0.2418594229
N  N1  1  0.08765000  0.73086000  0.82139000  1.0 0.3355994604
N  N2  1  0.73086000  0.82139000  0.08765000  1.0 0.3355994604
N  N3  1  0.82139000  0.08765000  0.73086000  1.0 0.3355994604
N  N4  1  0.91235000  0.26914000  0.17861000  1.0 0.3355994604
N  N5  1  0.26914000  0.17861000  0.91235000  1.0 0.3355994604
N  N6  1  0.17861000  0.91235000  0.26914000  1.0 0.3331559382
N  N7  1  0.03340000  0.72450000  0.73260000  1.0 0.0143724911
N  N8  1  0.72450000  0.73260000  0.03340000  1.0 0.0159277
N  N9  1  0.73260000  0.03340000  0.72450000  1.0 0.0159277
N  N10  1  0.96660000  0.27550000  0.26740000  1.0 0.0159277
N  N11  1  0.27550000  0.26740000  0.96660000  1.0 0.0159277
N  N12  1  0.26740000  0.96660000  0.27550000  1.0 0.0159277
N  N13  1  0.19690000  0.84170000  0.95950000  1.0 0.3526748699
N  N14  1  0.84170000  0.95950000  0.19690000  1.0 0.3526748699
N  N15  1  0.95950000  0.19690000  0.84170000  1.0 0.3526748699
N  N16  1  0.80310000  0.15830000  0.04050000  1.0 0.3526748699
N  N17  1  0.15830000  0.04050000  0.80310000  1.0 0.3526748699
N  N18  1  0.04050000  0.80310000  0.15830000  1.0 0.3526748699
N  N19  1  0.17150000  0.74720000  0.93720000  1.0 -0.1220784552
N  N20  1  0.74720000  0.93720000  0.17150000  1.0 -0.1220784552
N  N21  1  0.93720000  0.17150000  0.74720000  1.0 -0.1220784552
N  N22  1  0.82850000  0.25280000  0.06280000  1.0 -0.1220784552
N  N23  1  0.25280000  0.06280000  0.82850000  1.0 -0.1220784552
N  N24  1  0.06280000  0.82850000  0.25280000  1.0 -0.1258521222
N  N25  1  0.16020000  0.73940000  0.90530000  1.0 -0.032395014
N  N26  1  0.73940000  0.90530000  0.16020000  1.0 -0.032395014
N  N27  1  0.90530000  0.16020000  0.73940000  1.0 -0.0398595908
N  N28  1  0.83980000  0.26060000  0.09470000  1.0 -0.032395014
N  N29  1  0.26060000  0.09470000  0.83980000  1.0 -0.032395014
N  N30  1  0.09470000  0.83980000  0.26060000  1.0 -0.032395014
O  O1  1  0.32998000  0.68898000  0.06674000  1.0 -0.5473478156
O  O2  1  0.68898000  0.06674000  0.32998000  1.0 -0.5473478156
O  O3  1  0.06674000  0.32998000  0.68898000  1.0 -0.5473478156
O  O4  1  0.67002000  0.31102000  0.93326000  1.0 -0.5473478156
O  O5  1  0.31102000  0.93326000  0.67002000  1.0 -0.5473478156
O  O6  1  0.93326000  0.67002000  0.31102000  1.0 -0.5473478156
O  O7  1  0.51750000  0.89355000  0.36765000  1.0 -0.5714141545
O  O8  1  0.89355000  0.36765000  0.51750000  1.0 -0.5714141545
O  O9  1  0.36765000  0.51750000  0.89355000  1.0 -0.5714141545
O  O10  1  0.48250000  0.10645000  0.63235000  1.0 -0.5714141545
O  O11  1  0.10645000  0.63235000  0.48250000  1.0 -0.5714141545
O  O12  1  0.63235000  0.48250000  0.10645000  1.0 -0.5714141545
O  O13  1  0.92406000  0.36134000  0.73230000  1.0 -0.6242433406
O  O14  1  0.36134000  0.73230000  0.92406000  1.0 -0.6242433406
O  O15  1  0.73230000  0.92406000  0.36134000  1.0 -0.6242433406
O  O16  1  0.07594000  0.63866000  0.26770000  1.0 -0.6242433406
O  O17  1  0.63866000  0.26770000  0.07594000  1.0 -0.6242433406
O  O18  1  0.26770000  0.07594000  0.63866000  1.0 -0.6242433406
O  O19  1  0.13010000  0.71940000  0.89750000  1.0 -0.0780591262
O  O20  1  0.71940000  0.89750000  0.13010000  1.0 -0.0780591262
O  O21  1  0.89750000  0.13010000  0.71940000  1.0 -0.0780591262
O  O22  1  0.86990000  0.28060000  0.10250000  1.0 -0.0780591262
O  O23  1  0.28060000  0.10250000  0.86990000  1.0 -0.0780591262
O  O24  1  0.10250000  0.86990000  0.28060000  1.0 -0.0780591262
O  O25  1  0.24560000  0.96110000  0.99930000  1.0 -0.1713396795
O  O26  1  0.96110000  0.99930000  0.24560000  1.0 -0.1713396795
O  O27  1  0.99930000  0.24560000  0.96110000  1.0 -0.1713396795
O  O28  1  0.75440000  0.03890000  0.00070000  1.0 -0.1713396795
O  O29  1  0.03890000  0.00070000  0.75440000  1.0 -0.1713396795
O  O30  1  0.00070000  0.75440000  0.03890000  1.0 -0.1776778318
O  O31  1  0.99500000  0.70770000  0.72330000  1.0 -0.0398595908
O  O32  1  0.70770000  0.72330000  0.99500000  1.0 -0.0398595908
O  O33  1  0.72330000  0.99500000  0.70770000  1.0 -0.0398595908
O  O34  1  0.00500000  0.29230000  0.27670000  1.0 -0.0398595908
O  O35  1  0.29230000  0.27670000  0.00500000  1.0 -0.0398595908
O  O36  1  0.27670000  0.00500000  0.29230000  1.0 -0.0398595908
