# DDEC6 charges by PACMAN v1.1 (https://github.com/mtap-research/PACMAN-charge/)
data_WORLAS_ASR_pacman
_symmetry_space_group_name_H-M   'P 1'
_cell_length_a   17.91280000
_cell_length_b   20.00020000
_cell_length_c   20.87250000
_cell_angle_alpha   71.64500000
_cell_angle_beta   70.30500000
_cell_angle_gamma   68.98100000
_symmetry_Int_Tables_number   1
_chemical_formula_structural   Zn4H18C36O13
_chemical_formula_sum   'Zn16 H72 C144 O52'
_cell_volume   6409.71567091
_cell_formula_units_Z   4
loop_
 _symmetry_equiv_pos_site_id
 _symmetry_equiv_pos_as_xyz
  1  'x, y, z'
loop_
 _atom_site_type_symbol
 _atom_site_label
 _atom_site_symmetry_multiplicity
 _atom_site_fract_x
 _atom_site_fract_y
 _atom_site_fract_z
 _atom_site_occupancy
 _atom_site_charge
Zn  Zn1  1  0.86657000  0.84052000  0.88164000  1.0 0.9918146777
Zn  Zn2  1  0.89105000  0.85860000  0.02352000  1.0 0.9409546403
Zn  Zn3  1  0.86905000  0.71152000  0.01707000  1.0 0.9331673134
Zn  Zn4  1  0.71952000  0.85165000  0.02233000  1.0 0.9409546403
Zn  Zn5  1  0.45755000  0.27499000  0.45868000  1.0 0.9480682361
Zn  Zn6  1  0.30633000  0.29236000  0.58939000  1.0 0.9409546403
Zn  Zn7  1  0.27672000  0.27588000  0.45310000  1.0 0.9784127223
Zn  Zn8  1  0.30982000  0.42072000  0.45933000  1.0 0.9480682361
Zn  Zn9  1  0.13343000  0.15948000  0.11836000  1.0 0.9918146777
Zn  Zn10  1  0.10895000  0.14140000  0.97648000  1.0 0.9409546403
Zn  Zn11  1  0.13095000  0.28848000  0.98293000  1.0 0.9331673134
Zn  Zn12  1  0.28048000  0.14835000  0.97767000  1.0 0.9409546403
Zn  Zn13  1  0.54245000  0.72501000  0.54132000  1.0 0.9480682361
Zn  Zn14  1  0.69367000  0.70764000  0.41061000  1.0 0.9409546403
Zn  Zn15  1  0.72328000  0.72412000  0.54690000  1.0 0.9784127223
Zn  Zn16  1  0.69018000  0.57928000  0.54067000  1.0 0.9480682361
H  H1  1  0.04120000  0.94660000  0.76060000  1.0 0.1283437335
H  H2  1  0.12760000  0.99600000  0.64140000  1.0 0.1221228249
H  H3  1  0.19880000  0.07940000  0.57190000  1.0 0.1221228249
H  H4  1  0.13270000  0.18150000  0.73090000  1.0 0.1283437335
H  H5  1  0.05200000  0.13240000  0.84830000  1.0 0.1221228249
H  H6  1  0.98720000  0.04350000  0.91930000  1.0 0.1283437335
H  H7  1  0.07380000  0.75460000  0.14360000  1.0 0.1221228249
H  H8  1  0.16010000  0.68470000  0.21550000  1.0 0.1283437335
H  H9  1  0.21580000  0.56650000  0.29070000  1.0 0.1283437335
H  H10  1  0.14280000  0.38830000  0.30010000  1.0 0.1221228249
H  H11  1  0.07020000  0.45900000  0.21730000  1.0 0.1221228249
H  H12  1  0.01350000  0.57700000  0.14850000  1.0 0.1221228249
H  H13  1  0.73960000  0.56310000  0.15830000  1.0 0.1126807653
H  H14  1  0.72820000  0.44570000  0.22970000  1.0 0.1221228249
H  H15  1  0.64580000  0.37850000  0.31450000  1.0 0.1221228249
H  H16  1  0.44830000  0.55470000  0.32580000  1.0 0.1283437335
H  H17  1  0.45920000  0.67070000  0.23950000  1.0 0.1221228249
H  H18  1  0.53350000  0.74290000  0.15720000  1.0 0.1221228249
H  H19  1  0.03390000  0.69770000  0.75670000  1.0 0.1283437335
H  H20  1  0.10910000  0.67170000  0.63970000  1.0 0.1221228249
H  H21  1  0.19860000  0.59070000  0.57000000  1.0 0.1283437335
H  H22  1  0.18790000  0.42150000  0.73690000  1.0 0.1283437335
H  H23  1  0.10360000  0.44690000  0.85290000  1.0 0.1283437335
H  H24  1  0.02170000  0.52760000  0.92440000  1.0 0.1283437335
H  H25  1  0.73800000  0.00460000  0.76790000  1.0 0.1283437335
H  H26  1  0.72330000  0.07390000  0.64360000  1.0 0.1221228249
H  H27  1  0.63910000  0.14290000  0.57160000  1.0 0.1283437335
H  H28  1  0.44400000  0.18620000  0.73580000  1.0 0.136008029
H  H29  1  0.45830000  0.12160000  0.85910000  1.0 0.1283437335
H  H30  1  0.53660000  0.03380000  0.92970000  1.0 0.1283437335
H  H31  1  0.59940000  0.14710000  0.31370000  1.0 0.1283437335
H  H32  1  0.72960000  0.08690000  0.23240000  1.0 0.1221228249
H  H33  1  0.79580000  0.00830000  0.15740000  1.0 0.1126807653
H  H34  1  0.57930000  0.96680000  0.17980000  1.0 0.1126807653
H  H35  1  0.45380000  0.02550000  0.26510000  1.0 0.1221228249
H  H36  1  0.38970000  0.10620000  0.34110000  1.0 0.1221228249
H  H37  1  0.95880000  0.05340000  0.23940000  1.0 0.1283437335
H  H38  1  0.87240000  0.00400000  0.35860000  1.0 0.1221228249
H  H39  1  0.80120000  0.92060000  0.42810000  1.0 0.1221228249
H  H40  1  0.86730000  0.81850000  0.26910000  1.0 0.1283437335
H  H41  1  0.94800000  0.86760000  0.15170000  1.0 0.1221228249
H  H42  1  0.01280000  0.95650000  0.08070000  1.0 0.1283437335
H  H43  1  0.92620000  0.24540000  0.85640000  1.0 0.1221228249
H  H44  1  0.83990000  0.31530000  0.78450000  1.0 0.1283437335
H  H45  1  0.78420000  0.43350000  0.70930000  1.0 0.1283437335
H  H46  1  0.85720000  0.61170000  0.69990000  1.0 0.1221228249
H  H47  1  0.92980000  0.54100000  0.78270000  1.0 0.1221228249
H  H48  1  0.98650000  0.42300000  0.85150000  1.0 0.1221228249
H  H49  1  0.26040000  0.43690000  0.84170000  1.0 0.1126807653
H  H50  1  0.27180000  0.55430000  0.77030000  1.0 0.1221228249
H  H51  1  0.35420000  0.62150000  0.68550000  1.0 0.1221228249
H  H52  1  0.55170000  0.44530000  0.67420000  1.0 0.1283437335
H  H53  1  0.54080000  0.32930000  0.76050000  1.0 0.1221228249
H  H54  1  0.46650000  0.25710000  0.84280000  1.0 0.1221228249
H  H55  1  0.96610000  0.30230000  0.24330000  1.0 0.1283437335
H  H56  1  0.89090000  0.32830000  0.36030000  1.0 0.1221228249
H  H57  1  0.80140000  0.40930000  0.43000000  1.0 0.1221228249
H  H58  1  0.81210000  0.57850000  0.26310000  1.0 0.1283437335
H  H59  1  0.89640000  0.55310000  0.14710000  1.0 0.1283437335
H  H60  1  0.97830000  0.47240000  0.07560000  1.0 0.1283437335
H  H61  1  0.26200000  0.99540000  0.23210000  1.0 0.1283437335
H  H62  1  0.27670000  0.92610000  0.35640000  1.0 0.1221228249
H  H63  1  0.36090000  0.85710000  0.42840000  1.0 0.1283437335
H  H64  1  0.55600000  0.81380000  0.26420000  1.0 0.136008029
H  H65  1  0.54170000  0.87840000  0.14090000  1.0 0.1283437335
H  H66  1  0.46340000  0.96620000  0.07030000  1.0 0.1283437335
H  H67  1  0.40060000  0.85290000  0.68630000  1.0 0.1283437335
H  H68  1  0.27040000  0.91310000  0.76760000  1.0 0.1221228249
H  H69  1  0.20420000  0.99170000  0.84260000  1.0 0.1126807653
H  H70  1  0.42070000  0.03320000  0.82020000  1.0 0.1126807653
H  H71  1  0.54620000  0.97450000  0.73490000  1.0 0.1221228249
H  H72  1  0.61030000  0.89380000  0.65890000  1.0 0.1221228249
C  C1  1  0.96730000  0.93270000  0.89330000  1.0 0.5973291147
C  C2  1  0.01190000  0.98740000  0.84570000  1.0 -0.0267095798
C  C3  1  0.04630000  0.98310000  0.77760000  1.0 -0.1601765158
C  C4  1  0.09010000  0.03470000  0.73230000  1.0 0.0707370547
C  C5  1  0.13010000  0.03240000  0.66010000  1.0 -0.1601765158
C  C6  1  0.17130000  0.08220000  0.61900000  1.0 -0.1011164015
C  C7  1  0.17380000  0.13860000  0.64530000  1.0 -0.0191039172
C  C8  1  0.13260000  0.14280000  0.71380000  1.0 -0.1497676101
C  C9  1  0.09080000  0.09180000  0.75850000  1.0 0.0707370547
C  C10  1  0.05150000  0.09470000  0.83010000  1.0 -0.1413823936
C  C11  1  0.01330000  0.04220000  0.87170000  1.0 -0.1011164015
C  C12  1  0.22340000  0.19080000  0.60060000  1.0 0.5807398009
C  C13  1  0.97730000  0.71900000  0.09580000  1.0 0.5973291147
C  C14  1  0.03720000  0.66980000  0.14070000  1.0 -0.0191039172
C  C15  1  0.08000000  0.70330000  0.16010000  1.0 -0.1159564507
C  C16  1  0.13040000  0.66190000  0.20290000  1.0 -0.1413823936
C  C17  1  0.13960000  0.58740000  0.22870000  1.0 0.0811090606
C  C18  1  0.18740000  0.54480000  0.27540000  1.0 -0.1601765158
C  C19  1  0.19350000  0.47190000  0.29930000  1.0 -0.0025071976
C  C20  1  0.14310000  0.43800000  0.27980000  1.0 -0.1011164015
C  C21  1  0.09880000  0.48000000  0.23300000  1.0 -0.1601765158
C  C22  1  0.09490000  0.55430000  0.20750000  1.0 0.0889464627
C  C23  1  0.04350000  0.59810000  0.16280000  1.0 -0.1497676101
C  C24  1  0.24260000  0.42640000  0.35480000  1.0 0.5911997406
C  C25  1  0.70380000  0.70550000  0.09390000  1.0 0.5807398009
C  C26  1  0.64660000  0.66010000  0.14440000  1.0 -0.0025071976
C  C27  1  0.68180000  0.58450000  0.17400000  1.0 -0.1601765158
C  C28  1  0.63560000  0.54240000  0.22340000  1.0 0.0811090606
C  C29  1  0.67130000  0.46830000  0.24780000  1.0 -0.1497676101
C  C30  1  0.62220000  0.42950000  0.29830000  1.0 -0.1077066868
C  C31  1  0.53850000  0.46040000  0.32790000  1.0 -0.0126131763
C  C32  1  0.50430000  0.53240000  0.30460000  1.0 -0.1413823936
C  C33  1  0.54960000  0.57460000  0.25010000  1.0 0.0811090606
C  C34  1  0.51650000  0.64940000  0.22210000  1.0 -0.1413823936
C  C35  1  0.55930000  0.69240000  0.17310000  1.0 -0.1077066868
C  C36  1  0.48430000  0.41660000  0.38360000  1.0 0.5911997406
C  C37  1  0.96640000  0.67400000  0.89270000  1.0 0.5911997406
C  C38  1  0.02290000  0.62230000  0.84610000  1.0 -0.0191039172
C  C39  1  0.05010000  0.64650000  0.77650000  1.0 -0.1497676101
C  C40  1  0.10160000  0.59790000  0.73260000  1.0 0.0707370547
C  C41  1  0.12710000  0.62100000  0.66040000  1.0 -0.1497676101
C  C42  1  0.17710000  0.57310000  0.61840000  1.0 -0.1011164015
C  C43  1  0.19620000  0.49730000  0.64810000  1.0 -0.0368958254
C  C44  1  0.17130000  0.47270000  0.71750000  1.0 -0.1413823936
C  C45  1  0.12130000  0.52110000  0.76190000  1.0 0.0707370547
C  C46  1  0.09050000  0.49810000  0.83290000  1.0 -0.1497676101
C  C47  1  0.04200000  0.54560000  0.87590000  1.0 -0.1077066868
C  C48  1  0.24140000  0.44400000  0.60300000  1.0 0.5911997406
C  C49  1  0.70000000  0.95800000  0.89950000  1.0 0.5807398009
C  C50  1  0.64560000  0.01550000  0.85510000  1.0 -0.0126131763
C  C51  1  0.68130000  0.02830000  0.78530000  1.0 -0.168541978
C  C52  1  0.63150000  0.07860000  0.73750000  1.0 0.0811090606
C  C53  1  0.66600000  0.09400000  0.66260000  1.0 -0.1497676101
C  C54  1  0.61770000  0.13600000  0.62080000  1.0 -0.1011164015
C  C55  1  0.53420000  0.17040000  0.64940000  1.0 -0.0126131763
C  C56  1  0.50030000  0.16120000  0.71840000  1.0 -0.1497676101
C  C57  1  0.54810000  0.11490000  0.76430000  1.0 0.064675619
C  C58  1  0.51410000  0.09750000  0.83940000  1.0 -0.1497676101
C  C59  1  0.56120000  0.04760000  0.88130000  1.0 -0.1011164015
C  C60  1  0.47870000  0.21510000  0.59900000  1.0 0.5911997406
C  C61  1  0.44620000  0.18590000  0.37970000  1.0 0.6069606292
C  C62  1  0.48950000  0.13410000  0.33010000  1.0 -0.0025071976
C  C63  1  0.57060000  0.12230000  0.30270000  1.0 -0.1413823936
C  C64  1  0.61520000  0.07280000  0.25680000  1.0 0.0889464627
C  C65  1  0.69940000  0.06160000  0.22370000  1.0 -0.1601765158
C  C66  1  0.73850000  0.01550000  0.17940000  1.0 -0.0946616259
C  C67  1  0.69300000  0.97800000  0.16610000  1.0 -0.0126131763
C  C68  1  0.60840000  0.98950000  0.19300000  1.0 -0.1497676101
C  C69  1  0.56540000  0.03750000  0.24210000  1.0 0.0811090606
C  C70  1  0.48540000  0.04980000  0.27340000  1.0 -0.1497676101
C  C71  1  0.44690000  0.09850000  0.31850000  1.0 -0.1011164015
C  C72  1  0.73670000  0.92730000  0.11530000  1.0 0.5911997406
C  C73  1  0.03270000  0.06730000  0.10670000  1.0 0.5973291147
C  C74  1  0.98810000  0.01260000  0.15430000  1.0 -0.0267095798
C  C75  1  0.95370000  0.01690000  0.22240000  1.0 -0.1601765158
C  C76  1  0.90990000  0.96530000  0.26770000  1.0 0.0707370547
C  C77  1  0.86990000  0.96760000  0.33990000  1.0 -0.1601765158
C  C78  1  0.82870000  0.91780000  0.38100000  1.0 -0.1077066868
C  C79  1  0.82620000  0.86140000  0.35470000  1.0 -0.0191039172
C  C80  1  0.86740000  0.85720000  0.28620000  1.0 -0.1497676101
C  C81  1  0.90920000  0.90820000  0.24150000  1.0 0.0707370547
C  C82  1  0.94850000  0.90530000  0.16990000  1.0 -0.1413823936
C  C83  1  0.98670000  0.95780000  0.12830000  1.0 -0.1011164015
C  C84  1  0.77660000  0.80920000  0.39940000  1.0 0.5807398009
C  C85  1  0.02270000  0.28100000  0.90420000  1.0 0.5973291147
C  C86  1  0.96280000  0.33020000  0.85930000  1.0 -0.0191039172
C  C87  1  0.92000000  0.29670000  0.83990000  1.0 -0.1159564507
C  C88  1  0.86960000  0.33810000  0.79710000  1.0 -0.1413823936
C  C89  1  0.86040000  0.41260000  0.77130000  1.0 0.0811090606
C  C90  1  0.81260000  0.45520000  0.72460000  1.0 -0.1601765158
C  C91  1  0.80650000  0.52810000  0.70070000  1.0 -0.0025071976
C  C92  1  0.85690000  0.56200000  0.72020000  1.0 -0.1011164015
C  C93  1  0.90120000  0.52000000  0.76700000  1.0 -0.1601765158
C  C94  1  0.90510000  0.44570000  0.79250000  1.0 0.0889464627
C  C95  1  0.95650000  0.40190000  0.83720000  1.0 -0.1413823936
C  C96  1  0.75740000  0.57360000  0.64520000  1.0 0.5911997406
C  C97  1  0.29620000  0.29450000  0.90610000  1.0 0.5807398009
C  C98  1  0.35340000  0.33990000  0.85560000  1.0 -0.0025071976
C  C99  1  0.31820000  0.41550000  0.82600000  1.0 -0.1601765158
C  C100  1  0.36440000  0.45760000  0.77660000  1.0 0.0811090606
C  C101  1  0.32870000  0.53170000  0.75220000  1.0 -0.1497676101
C  C102  1  0.37780000  0.57050000  0.70170000  1.0 -0.1077066868
C  C103  1  0.46150000  0.53960000  0.67210000  1.0 -0.0126131763
C  C104  1  0.49570000  0.46760000  0.69540000  1.0 -0.1413823936
C  C105  1  0.45040000  0.42540000  0.74990000  1.0 0.0811090606
C  C106  1  0.48350000  0.35060000  0.77790000  1.0 -0.1413823936
C  C107  1  0.44070000  0.30760000  0.82690000  1.0 -0.1077066868
C  C108  1  0.51570000  0.58340000  0.61640000  1.0 0.5911997406
C  C109  1  0.03360000  0.32600000  0.10730000  1.0 0.5911997406
C  C110  1  0.97710000  0.37770000  0.15390000  1.0 -0.0191039172
C  C111  1  0.94990000  0.35350000  0.22350000  1.0 -0.1497676101
C  C112  1  0.89840000  0.40210000  0.26740000  1.0 0.0707370547
C  C113  1  0.87290000  0.37900000  0.33960000  1.0 -0.1497676101
C  C114  1  0.82290000  0.42690000  0.38160000  1.0 -0.1011164015
C  C115  1  0.80380000  0.50270000  0.35190000  1.0 -0.0368958254
C  C116  1  0.82870000  0.52730000  0.28250000  1.0 -0.1413823936
C  C117  1  0.87870000  0.47890000  0.23810000  1.0 0.0707370547
C  C118  1  0.90950000  0.50190000  0.16710000  1.0 -0.1497676101
C  C119  1  0.95800000  0.45440000  0.12410000  1.0 -0.1077066868
C  C120  1  0.75860000  0.55600000  0.39700000  1.0 0.5911997406
C  C121  1  0.30000000  0.04200000  0.10050000  1.0 0.5807398009
C  C122  1  0.35440000  0.98450000  0.14490000  1.0 -0.0126131763
C  C123  1  0.31870000  0.97170000  0.21470000  1.0 -0.168541978
C  C124  1  0.36850000  0.92140000  0.26250000  1.0 0.0811090606
C  C125  1  0.33400000  0.90600000  0.33740000  1.0 -0.1497676101
C  C126  1  0.38230000  0.86400000  0.37920000  1.0 -0.1011164015
C  C127  1  0.46580000  0.82960000  0.35060000  1.0 -0.0126131763
C  C128  1  0.49970000  0.83880000  0.28160000  1.0 -0.1497676101
C  C129  1  0.45190000  0.88510000  0.23570000  1.0 0.064675619
C  C130  1  0.48590000  0.90250000  0.16060000  1.0 -0.1413823936
C  C131  1  0.43880000  0.95240000  0.11870000  1.0 -0.1011164015
C  C132  1  0.52130000  0.78490000  0.40100000  1.0 0.5911997406
C  C133  1  0.55380000  0.81410000  0.62030000  1.0 0.6069606292
C  C134  1  0.51050000  0.86590000  0.66990000  1.0 -0.0126131763
C  C135  1  0.42940000  0.87770000  0.69730000  1.0 -0.1413823936
C  C136  1  0.38480000  0.92720000  0.74320000  1.0 0.0889464627
C  C137  1  0.30060000  0.93840000  0.77630000  1.0 -0.1601765158
C  C138  1  0.26150000  0.98450000  0.82060000  1.0 -0.0946616259
C  C139  1  0.30700000  0.02200000  0.83390000  1.0 -0.0126131763
C  C140  1  0.39160000  0.01050000  0.80700000  1.0 -0.1497676101
C  C141  1  0.43460000  0.96250000  0.75790000  1.0 0.0811090606
C  C142  1  0.51460000  0.95020000  0.72660000  1.0 -0.1497676101
C  C143  1  0.55310000  0.90150000  0.68150000  1.0 -0.1011164015
C  C144  1  0.26330000  0.07270000  0.88470000  1.0 0.5911997406
O  O1  1  0.83790000  0.81650000  0.98650000  1.0 -1.021389271
O  O2  1  0.95800000  0.88830000  0.86480000  1.0 -0.5673537008
O  O3  1  0.94610000  0.92910000  0.95860000  1.0 -0.5300714441
O  O4  1  0.25140000  0.19240000  0.54030000  1.0 -0.5042456043
O  O5  1  0.23280000  0.23150000  0.63260000  1.0 -0.559292796
O  O6  1  0.97120000  0.78560000  0.07280000  1.0 -0.5191273344
O  O7  1  0.94010000  0.68350000  0.08100000  1.0 -0.5505856625
O  O8  1  0.25400000  0.46600000  0.38840000  1.0 -0.5673537008
O  O9  1  0.25750000  0.35910000  0.36640000  1.0 -0.5407837999
O  O10  1  0.77730000  0.67330000  0.07440000  1.0 -0.5300714441
O  O11  1  0.66650000  0.77410000  0.07320000  1.0 -0.559292796
O  O12  1  0.51830000  0.34590000  0.39840000  1.0 -0.5505856625
O  O13  1  0.41250000  0.44880000  0.41140000  1.0 -0.5300714441
O  O14  1  0.95760000  0.74080000  0.86580000  1.0 -0.5673537008
O  O15  1  0.93270000  0.64680000  0.95560000  1.0 -0.5407837999
O  O16  1  0.26290000  0.47150000  0.53680000  1.0 -0.5505856625
O  O17  1  0.25750000  0.37640000  0.63120000  1.0 -0.5300714441
O  O18  1  0.77360000  0.94120000  0.87810000  1.0 -0.5191273344
O  O19  1  0.65690000  0.92750000  0.96150000  1.0 -0.559292796
O  O20  1  0.51370000  0.22330000  0.53450000  1.0 -0.5407837999
O  O21  1  0.40470000  0.24110000  0.62630000  1.0 -0.5300714441
O  O22  1  0.34050000  0.31500000  0.48840000  1.0 -1.0312940133
O  O23  1  0.49090000  0.20530000  0.40120000  1.0 -0.5300714441
O  O24  1  0.36790000  0.20330000  0.39760000  1.0 -0.5407837999
O  O25  1  0.81370000  0.91710000  0.09200000  1.0 -0.5407837999
O  O26  1  0.69070000  0.90250000  0.09950000  1.0 -0.559292796
O  O27  1  0.16210000  0.18350000  0.01350000  1.0 -1.021389271
O  O28  1  0.04200000  0.11170000  0.13520000  1.0 -0.5673537008
O  O29  1  0.05390000  0.07090000  0.04140000  1.0 -0.5300714441
O  O30  1  0.74860000  0.80760000  0.45970000  1.0 -0.5065649402
O  O31  1  0.76720000  0.76850000  0.36740000  1.0 -0.559292796
O  O32  1  0.02880000  0.21440000  0.92720000  1.0 -0.5300714441
O  O33  1  0.05990000  0.31650000  0.91900000  1.0 -0.5505856625
O  O34  1  0.74600000  0.53400000  0.61160000  1.0 -0.5673537008
O  O35  1  0.74250000  0.64090000  0.63360000  1.0 -0.5407837999
O  O36  1  0.22270000  0.32670000  0.92560000  1.0 -0.5300714441
O  O37  1  0.33350000  0.22590000  0.92680000  1.0 -0.559292796
O  O38  1  0.48170000  0.65410000  0.60160000  1.0 -0.5505856625
O  O39  1  0.58750000  0.55120000  0.58860000  1.0 -0.5300714441
O  O40  1  0.04240000  0.25920000  0.13420000  1.0 -0.5673537008
O  O41  1  0.06730000  0.35320000  0.04440000  1.0 -0.5407837999
O  O42  1  0.73710000  0.52850000  0.46320000  1.0 -0.5505856625
O  O43  1  0.74250000  0.62360000  0.36880000  1.0 -0.5300714441
O  O44  1  0.22640000  0.05880000  0.12190000  1.0 -0.5191273344
O  O45  1  0.34310000  0.07250000  0.03850000  1.0 -0.559292796
O  O46  1  0.48630000  0.77670000  0.46550000  1.0 -0.5407837999
O  O47  1  0.59530000  0.75890000  0.37370000  1.0 -0.5300714441
O  O48  1  0.65950000  0.68500000  0.51160000  1.0 -1.0312940133
O  O49  1  0.50910000  0.79470000  0.59880000  1.0 -0.5300714441
O  O50  1  0.63210000  0.79670000  0.60240000  1.0 -0.5407837999
O  O51  1  0.18630000  0.08290000  0.90800000  1.0 -0.5407837999
O  O52  1  0.30930000  0.09750000  0.90050000  1.0 -0.559292796
