# DDEC6 charges by PACMAN v1.1 (https://github.com/mtap-research/PACMAN-charge/)
data_WOTNAX_ion_pacman
_symmetry_space_group_name_H-M   'P 1'
_cell_length_a   8.40800000
_cell_length_b   14.13700000
_cell_length_c   18.30100000
_cell_angle_alpha   90.00000000
_cell_angle_beta   90.00000000
_cell_angle_gamma   90.00000000
_symmetry_Int_Tables_number   1
_chemical_formula_structural   CuH16C17Br2(N3O)2
_chemical_formula_sum   'Cu4 H64 C68 Br8 N24 O8'
_cell_volume   2175.32816070
_cell_formula_units_Z   4
loop_
 _symmetry_equiv_pos_site_id
 _symmetry_equiv_pos_as_xyz
  1  'x, y, z'
loop_
 _atom_site_type_symbol
 _atom_site_label
 _atom_site_symmetry_multiplicity
 _atom_site_fract_x
 _atom_site_fract_y
 _atom_site_fract_z
 _atom_site_occupancy
 _atom_site_charge
Cu  Cu1  1  0.66113000  0.15171000  0.52577000  1.0 0.6549101301
Cu  Cu2  1  0.33887000  0.65171000  0.47423000  1.0 0.6549101301
Cu  Cu3  1  0.83887000  0.15171000  0.02577000  1.0 0.6549101301
Cu  Cu4  1  0.16113000  0.65171000  0.97423000  1.0 0.6549101301
H  H1  1  0.75700000  0.23290000  0.67200000  1.0 0.378552986
H  H2  1  0.76020000  0.30620000  0.61720000  1.0 0.3487739988
H  H3  1  0.65230000  0.85880000  0.63890000  1.0 0.136594194
H  H4  1  0.47230000  0.74520000  0.60590000  1.0 0.1160718662
H  H5  1  0.55590000  0.78830000  0.39840000  1.0 0.1132072242
H  H6  1  0.74590000  0.90250000  0.42580000  1.0 0.1463301011
H  H7  1  0.31220000  0.09660000  0.52560000  1.0 0.1132072242
H  H8  1  0.64450000  0.06560000  0.67320000  1.0 0.1019668222
H  H9  1  0.47300000  0.99040000  0.75120000  1.0 0.136594194
H  H10  1  0.21110000  0.96290000  0.71290000  1.0 0.1322518491
H  H11  1  0.16630000  0.83470000  0.49900000  1.0 0.1160718662
H  H12  1  0.16360000  0.59780000  0.60940000  1.0 0.1132072242
H  H13  1  0.01810000  0.66390000  0.69970000  1.0 0.136594194
H  H14  1  0.93910000  0.82160000  0.69070000  1.0 0.1322518491
H  H15  1  0.43970000  0.03440000  0.42560000  1.0 0.3487739988
H  H16  1  0.57630000  0.06280000  0.38370000  1.0 0.3487739988
H  H17  1  0.24300000  0.73290000  0.32800000  1.0 0.378552986
H  H18  1  0.23980000  0.80620000  0.38280000  1.0 0.3487739988
H  H19  1  0.34770000  0.35880000  0.36110000  1.0 0.136594194
H  H20  1  0.52770000  0.24520000  0.39410000  1.0 0.1160718662
H  H21  1  0.44410000  0.28830000  0.60160000  1.0 0.1132072242
H  H22  1  0.25410000  0.40250000  0.57420000  1.0 0.1463301011
H  H23  1  0.68780000  0.59660000  0.47440000  1.0 0.1132072242
H  H24  1  0.35550000  0.56560000  0.32680000  1.0 0.1019668222
H  H25  1  0.52700000  0.49040000  0.24880000  1.0 0.136594194
H  H26  1  0.78890000  0.46290000  0.28710000  1.0 0.1322518491
H  H27  1  0.83370000  0.33470000  0.50100000  1.0 0.1160718662
H  H28  1  0.83640000  0.09780000  0.39060000  1.0 0.1132072242
H  H29  1  0.98190000  0.16390000  0.30030000  1.0 0.136594194
H  H30  1  0.06090000  0.32160000  0.30930000  1.0 0.1322518491
H  H31  1  0.56030000  0.53440000  0.57440000  1.0 0.3487739988
H  H32  1  0.42370000  0.56280000  0.61630000  1.0 0.3487739988
H  H33  1  0.74300000  0.23290000  0.17200000  1.0 0.378552986
H  H34  1  0.73980000  0.30620000  0.11720000  1.0 0.3487739988
H  H35  1  0.84770000  0.85880000  0.13890000  1.0 0.136594194
H  H36  1  0.02770000  0.74520000  0.10590000  1.0 0.1160718662
H  H37  1  0.94410000  0.78830000  0.89840000  1.0 0.1160718662
H  H38  1  0.75410000  0.90250000  0.92580000  1.0 0.1463301011
H  H39  1  0.18780000  0.09660000  0.02560000  1.0 0.1132072242
H  H40  1  0.85550000  0.06560000  0.17320000  1.0 0.1019668222
H  H41  1  0.02700000  0.99040000  0.25120000  1.0 0.136594194
H  H42  1  0.28890000  0.96290000  0.21290000  1.0 0.1322518491
H  H43  1  0.33370000  0.83470000  0.99900000  1.0 0.1160718662
H  H44  1  0.33640000  0.59780000  0.10940000  1.0 0.1132072242
H  H45  1  0.48190000  0.66390000  0.19970000  1.0 0.136594194
H  H46  1  0.56090000  0.82160000  0.19070000  1.0 0.1322518491
H  H47  1  0.06030000  0.03440000  0.92560000  1.0 0.3487739988
H  H48  1  0.92370000  0.06280000  0.88370000  1.0 0.3487739988
H  H49  1  0.25700000  0.73290000  0.82800000  1.0 0.378552986
H  H50  1  0.26020000  0.80620000  0.88280000  1.0 0.3487739988
H  H51  1  0.15230000  0.35880000  0.86110000  1.0 0.136594194
H  H52  1  0.97230000  0.24520000  0.89410000  1.0 0.1160718662
H  H53  1  0.05590000  0.28830000  0.10160000  1.0 0.1132072242
H  H54  1  0.24590000  0.40250000  0.07420000  1.0 0.1463301011
H  H55  1  0.81220000  0.59660000  0.97440000  1.0 0.1132072242
H  H56  1  0.14450000  0.56560000  0.82680000  1.0 0.1019668222
H  H57  1  0.97300000  0.49040000  0.74880000  1.0 0.136594194
H  H58  1  0.71110000  0.46290000  0.78710000  1.0 0.1322518491
H  H59  1  0.66630000  0.33470000  0.00100000  1.0 0.1160718662
H  H60  1  0.66360000  0.09780000  0.89060000  1.0 0.1132072242
H  H61  1  0.51810000  0.16390000  0.80030000  1.0 0.136594194
H  H62  1  0.43910000  0.32160000  0.80930000  1.0 0.1322518491
H  H63  1  0.93970000  0.53440000  0.07440000  1.0 0.3487739988
H  H64  1  0.07630000  0.56280000  0.11630000  1.0 0.3487739988
C  C1  1  0.63560000  0.84480000  0.58980000  1.0 -0.1594440959
C  C2  1  0.52760000  0.77750000  0.56970000  1.0 0.076468011
C  C3  1  0.57740000  0.80250000  0.44710000  1.0 0.1019668222
C  C4  1  0.69130000  0.87150000  0.46300000  1.0 -0.1450414829
C  C5  1  0.72050000  0.89240000  0.53560000  1.0 0.0716622869
C  C6  1  0.84290000  0.96340000  0.55540000  1.0 0.24359302
C  C7  1  0.06950000  0.02120000  0.58870000  1.0 0.2495482169
C  C8  1  0.23560000  0.02880000  0.61590000  1.0 -0.0087130184
C  C9  1  0.34480000  0.07470000  0.57110000  1.0 0.0387030287
C  C10  1  0.54000000  0.05630000  0.65830000  1.0 0.0596838832
C  C11  1  0.43830000  0.01050000  0.70550000  1.0 -0.1277508609
C  C12  1  0.28230000  0.99520000  0.68310000  1.0 -0.0604597166
C  C13  1  0.04350000  0.84200000  0.59300000  1.0 0.1160718662
C  C14  1  0.13660000  0.80010000  0.54000000  1.0 -0.0087130184
C  C15  1  0.13550000  0.66130000  0.60550000  1.0 0.0716622869
C  C16  1  0.04690000  0.70000000  0.65930000  1.0 -0.1006380826
C  C17  1  0.99910000  0.79320000  0.65410000  1.0 -0.1150056742
C  C18  1  0.36440000  0.34480000  0.41020000  1.0 -0.1594440959
C  C19  1  0.47240000  0.27750000  0.43030000  1.0 0.076468011
C  C20  1  0.42260000  0.30250000  0.55290000  1.0 0.1019668222
C  C21  1  0.30870000  0.37150000  0.53700000  1.0 -0.1450414829
C  C22  1  0.27950000  0.39240000  0.46440000  1.0 0.0716622869
C  C23  1  0.15710000  0.46340000  0.44460000  1.0 0.24359302
C  C24  1  0.93050000  0.52120000  0.41130000  1.0 0.2495482169
C  C25  1  0.76440000  0.52880000  0.38410000  1.0 -0.0087130184
C  C26  1  0.65520000  0.57470000  0.42890000  1.0 0.0387030287
C  C27  1  0.46000000  0.55630000  0.34170000  1.0 0.0596838832
C  C28  1  0.56170000  0.51050000  0.29450000  1.0 -0.1277508609
C  C29  1  0.71770000  0.49520000  0.31690000  1.0 -0.0604597166
C  C30  1  0.95650000  0.34200000  0.40700000  1.0 0.1160718662
C  C31  1  0.86340000  0.30010000  0.46000000  1.0 -0.0087130184
C  C32  1  0.86450000  0.16130000  0.39450000  1.0 0.0716622869
C  C33  1  0.95310000  0.20000000  0.34070000  1.0 -0.1006380826
C  C34  1  0.00090000  0.29320000  0.34590000  1.0 -0.1150056742
C  C35  1  0.86440000  0.84480000  0.08980000  1.0 -0.1594440959
C  C36  1  0.97240000  0.77750000  0.06970000  1.0 0.076468011
C  C37  1  0.92260000  0.80250000  0.94710000  1.0 0.1019668222
C  C38  1  0.80870000  0.87150000  0.96300000  1.0 -0.1450414829
C  C39  1  0.77950000  0.89240000  0.03560000  1.0 0.0716622869
C  C40  1  0.65710000  0.96340000  0.05540000  1.0 0.24359302
C  C41  1  0.43050000  0.02120000  0.08870000  1.0 0.2495482169
C  C42  1  0.26440000  0.02880000  0.11590000  1.0 -0.0087130184
C  C43  1  0.15520000  0.07470000  0.07110000  1.0 0.0387030287
C  C44  1  0.96000000  0.05630000  0.15830000  1.0 0.0596838832
C  C45  1  0.06170000  0.01050000  0.20550000  1.0 -0.1277508609
C  C46  1  0.21770000  0.99520000  0.18310000  1.0 -0.0604597166
C  C47  1  0.45650000  0.84200000  0.09300000  1.0 0.1160718662
C  C48  1  0.36340000  0.80010000  0.04000000  1.0 -0.0087130184
C  C49  1  0.36450000  0.66130000  0.10550000  1.0 0.0716622869
C  C50  1  0.45310000  0.70000000  0.15930000  1.0 -0.1006380826
C  C51  1  0.50090000  0.79320000  0.15410000  1.0 -0.1150056742
C  C52  1  0.13560000  0.34480000  0.91020000  1.0 -0.1594440959
C  C53  1  0.02760000  0.27750000  0.93030000  1.0 0.076468011
C  C54  1  0.07740000  0.30250000  0.05290000  1.0 0.1019668222
C  C55  1  0.19130000  0.37150000  0.03700000  1.0 -0.1450414829
C  C56  1  0.22050000  0.39240000  0.96440000  1.0 0.0716622869
C  C57  1  0.34290000  0.46340000  0.94460000  1.0 0.24359302
C  C58  1  0.56950000  0.52120000  0.91130000  1.0 0.2495482169
C  C59  1  0.73560000  0.52880000  0.88410000  1.0 -0.0087130184
C  C60  1  0.84480000  0.57470000  0.92890000  1.0 0.0387030287
C  C61  1  0.04000000  0.55630000  0.84170000  1.0 0.0596838832
C  C62  1  0.93830000  0.51050000  0.79450000  1.0 -0.1277508609
C  C63  1  0.78230000  0.49520000  0.81690000  1.0 -0.0604597166
C  C64  1  0.54350000  0.34200000  0.90700000  1.0 0.1160718662
C  C65  1  0.63660000  0.30010000  0.96000000  1.0 -0.0087130184
C  C66  1  0.63550000  0.16130000  0.89450000  1.0 0.0716622869
C  C67  1  0.54690000  0.20000000  0.84070000  1.0 -0.1006380826
C  C68  1  0.49910000  0.29320000  0.84590000  1.0 -0.1150056742
Br  Br1  1  0.64861000  0.97705000  0.26988000  1.0 -0.6327156596
Br  Br2  1  0.16503000  0.97635000  0.39987000  1.0 -0.6054258816
Br  Br3  1  0.35139000  0.47705000  0.73012000  1.0 -0.6327156596
Br  Br4  1  0.83497000  0.47635000  0.60013000  1.0 -0.6054258816
Br  Br5  1  0.85139000  0.97705000  0.76988000  1.0 -0.6327156596
Br  Br6  1  0.33497000  0.97635000  0.89987000  1.0 -0.6054258816
Br  Br7  1  0.14861000  0.47705000  0.23012000  1.0 -0.6327156596
Br  Br8  1  0.66503000  0.47635000  0.10013000  1.0 -0.6054258816
N  N1  1  0.49850000  0.75620000  0.49907000  1.0 -0.2205488983
N  N2  1  0.83450000  0.05540000  0.54951000  1.0 -0.2362453513
N  N3  1  0.98110000  0.09300000  0.57140000  1.0 -0.2315444522
N  N4  1  0.98810000  0.93800000  0.58153000  1.0 -0.1006380826
N  N5  1  0.49750000  0.08820000  0.59219000  1.0 -0.2205488983
N  N6  1  0.18500000  0.70960000  0.54686000  1.0 -0.1823814235
N  N7  1  0.50150000  0.25620000  0.50093000  1.0 -0.2205488983
N  N8  1  0.16550000  0.55540000  0.45049000  1.0 -0.2362453513
N  N9  1  0.01890000  0.59300000  0.42860000  1.0 -0.2315444522
N  N10  1  0.01190000  0.43800000  0.41847000  1.0 -0.1006380826
N  N11  1  0.50250000  0.58820000  0.40781000  1.0 -0.2205488983
N  N12  1  0.81500000  0.20960000  0.45314000  1.0 -0.1823814235
N  N13  1  0.00150000  0.75620000  0.99907000  1.0 -0.2205488983
N  N14  1  0.66550000  0.05540000  0.04951000  1.0 -0.2362453513
N  N15  1  0.51890000  0.09300000  0.07140000  1.0 -0.2315444522
N  N16  1  0.51190000  0.93800000  0.08153000  1.0 -0.1006380826
N  N17  1  0.00250000  0.08820000  0.09219000  1.0 -0.2205488983
N  N18  1  0.31500000  0.70960000  0.04686000  1.0 -0.1823814235
N  N19  1  0.99850000  0.25620000  0.00093000  1.0 -0.2205488983
N  N20  1  0.33450000  0.55540000  0.95049000  1.0 -0.2362453513
N  N21  1  0.48110000  0.59300000  0.92860000  1.0 -0.2315444522
N  N22  1  0.48810000  0.43800000  0.91847000  1.0 -0.1006380826
N  N23  1  0.99750000  0.58820000  0.90781000  1.0 -0.2205488983
N  N24  1  0.68500000  0.20960000  0.95314000  1.0 -0.1823814235
O  O1  1  0.73330000  0.25030000  0.62890000  1.0 -0.7137778722
O  O2  1  0.52860000  0.06290000  0.42467000  1.0 -0.7346168332
O  O3  1  0.26670000  0.75030000  0.37110000  1.0 -0.7137778722
O  O4  1  0.47140000  0.56290000  0.57533000  1.0 -0.7346168332
O  O5  1  0.76670000  0.25030000  0.12890000  1.0 -0.7137778722
O  O6  1  0.97140000  0.06290000  0.92467000  1.0 -0.7346168332
O  O7  1  0.23330000  0.75030000  0.87110000  1.0 -0.7137778722
O  O8  1  0.02860000  0.56290000  0.07533000  1.0 -0.7346168332
