# DDEC6 charges by PACMAN v1.1 (https://github.com/mtap-research/PACMAN-charge/)
data_WOXKAY_ion_pacman
_symmetry_space_group_name_H-M   'P 1'
_cell_length_a   20.31400000
_cell_length_b   20.31400000
_cell_length_c   20.31400000
_cell_angle_alpha   95.66350000
_cell_angle_beta   95.66350000
_cell_angle_gamma   143.38200000
_symmetry_Int_Tables_number   1
_chemical_formula_structural   Cd2H20C20S2(N4O3)3
_chemical_formula_sum   'Cd8 H80 C80 S8 N48 O36'
_cell_volume   4746.98621896
_cell_formula_units_Z   4
loop_
 _symmetry_equiv_pos_site_id
 _symmetry_equiv_pos_as_xyz
  1  'x, y, z'
loop_
 _atom_site_type_symbol
 _atom_site_label
 _atom_site_symmetry_multiplicity
 _atom_site_fract_x
 _atom_site_fract_y
 _atom_site_fract_z
 _atom_site_occupancy
 _atom_site_charge
Cd  Cd1  1  0.56030000  0.43970000  0.50000000  1.0 0.8104321165
Cd  Cd2  1  0.93970000  0.06030000  0.50000000  1.0 0.8104321165
Cd  Cd3  1  0.93970000  0.43970000  0.87940000  1.0 0.8104321165
Cd  Cd4  1  0.56030000  0.06030000  0.12060000  1.0 0.8104321165
Cd  Cd5  1  0.25030000  0.25030000  0.50060000  1.0 0.8383818669
Cd  Cd6  1  0.74970000  0.74970000  0.49940000  1.0 0.8383818669
Cd  Cd7  1  0.25030000  0.74970000  0.00000000  1.0 0.8383818669
Cd  Cd8  1  0.74970000  0.25030000  0.00000000  1.0 0.8383818669
H  H1  1  0.53150000  0.29550000  0.61040000  1.0 0.1292624248
H  H2  1  0.24060000  0.14050000  0.62490000  1.0 0.1292624248
H  H3  1  0.19740000  0.00040000  0.65400000  1.0 0.1292624248
H  H4  1  0.44510000  0.26920000  0.32870000  1.0 0.1405822439
H  H5  1  0.13610000  0.06790000  0.34080000  1.0 0.1292624248
H  H6  1  0.08150000  0.01340000  0.21690000  1.0 0.1292624248
H  H7  1  0.56630000  0.30750000  0.49320000  1.0 0.1704791688
H  H8  1  0.66930000  0.41060000  0.53710000  1.0 0.1902811592
H  H9  1  0.68510000  0.92110000  0.38960000  1.0 0.1292624248
H  H10  1  0.51560000  0.61570000  0.37510000  1.0 0.1292624248
H  H11  1  0.34640000  0.54340000  0.34600000  1.0 0.1292624248
H  H12  1  0.94050000  0.11640000  0.67130000  1.0 0.1405822439
H  H13  1  0.72710000  0.79530000  0.65920000  1.0 0.1292624248
H  H14  1  0.79650000  0.86460000  0.78310000  1.0 0.1292624248
H  H15  1  0.81430000  0.07310000  0.50680000  1.0 0.1704791688
H  H16  1  0.87350000  0.13220000  0.46290000  1.0 0.1902811592
H  H17  1  0.07890000  0.46850000  0.76400000  1.0 0.1292624248
H  H18  1  0.38430000  0.75940000  0.89990000  1.0 0.1292624248
H  H19  1  0.45660000  0.80260000  0.80300000  1.0 0.1292624248
H  H20  1  0.88360000  0.55490000  0.82410000  1.0 0.1405822439
H  H21  1  0.20470000  0.86390000  0.93180000  1.0 0.1292624248
H  H22  1  0.13540000  0.91850000  0.93190000  1.0 0.1292624248
H  H23  1  0.92690000  0.43370000  0.74120000  1.0 0.1704791688
H  H24  1  0.86780000  0.33070000  0.74130000  1.0 0.1902811592
H  H25  1  0.70450000  0.31490000  0.23600000  1.0 0.1292624248
H  H26  1  0.85950000  0.48440000  0.10010000  1.0 0.1292624248
H  H27  1  0.99960000  0.65360000  0.19700000  1.0 0.1292624248
H  H28  1  0.73080000  0.05950000  0.17590000  1.0 0.1405822439
H  H29  1  0.93210000  0.27290000  0.06820000  1.0 0.1292624248
H  H30  1  0.98660000  0.20350000  0.06810000  1.0 0.1292624248
H  H31  1  0.69250000  0.18570000  0.25880000  1.0 0.1704791688
H  H32  1  0.58940000  0.12650000  0.25870000  1.0 0.1902811592
H  H33  1  0.53150000  0.92110000  0.23600000  1.0 0.1292624248
H  H34  1  0.24060000  0.61570000  0.10010000  1.0 0.1292624248
H  H35  1  0.19740000  0.54340000  0.19700000  1.0 0.1292624248
H  H36  1  0.44510000  0.11640000  0.17590000  1.0 0.1405822439
H  H37  1  0.13610000  0.79530000  0.06820000  1.0 0.1292624248
H  H38  1  0.08150000  0.86460000  0.06810000  1.0 0.1292624248
H  H39  1  0.56630000  0.07310000  0.25880000  1.0 0.1704791688
H  H40  1  0.66930000  0.13220000  0.25870000  1.0 0.1902811592
H  H41  1  0.68510000  0.29550000  0.76400000  1.0 0.1292624248
H  H42  1  0.51560000  0.14050000  0.89990000  1.0 0.1292624248
H  H43  1  0.34640000  0.00040000  0.80300000  1.0 0.1292624248
H  H44  1  0.94050000  0.26920000  0.82410000  1.0 0.1405822439
H  H45  1  0.72710000  0.06790000  0.93180000  1.0 0.1292624248
H  H46  1  0.79650000  0.01340000  0.93190000  1.0 0.1292624248
H  H47  1  0.81430000  0.30750000  0.74120000  1.0 0.1704791688
H  H48  1  0.87350000  0.41060000  0.74130000  1.0 0.1902811592
H  H49  1  0.07890000  0.31490000  0.61040000  1.0 0.1292624248
H  H50  1  0.38430000  0.48440000  0.62490000  1.0 0.1292624248
H  H51  1  0.45660000  0.65360000  0.65400000  1.0 0.1292624248
H  H52  1  0.88360000  0.05950000  0.32870000  1.0 0.1405822439
H  H53  1  0.20470000  0.27290000  0.34080000  1.0 0.1292624248
H  H54  1  0.13540000  0.20350000  0.21690000  1.0 0.1292624248
H  H55  1  0.92690000  0.18570000  0.49320000  1.0 0.1704791688
H  H56  1  0.86780000  0.12650000  0.53710000  1.0 0.1902811592
H  H57  1  0.70450000  0.46850000  0.38960000  1.0 0.1292624248
H  H58  1  0.85950000  0.75940000  0.37510000  1.0 0.1292624248
H  H59  1  0.99960000  0.80260000  0.34600000  1.0 0.1292624248
H  H60  1  0.73080000  0.55490000  0.67130000  1.0 0.1405822439
H  H61  1  0.93210000  0.86390000  0.65920000  1.0 0.1292624248
H  H62  1  0.98660000  0.91850000  0.78310000  1.0 0.1292624248
H  H63  1  0.69250000  0.43370000  0.50680000  1.0 0.1704791688
H  H64  1  0.58940000  0.33070000  0.46290000  1.0 0.1902811592
H  H65  1  0.17530000  0.89880000  0.72350000  1.0 0.1096226165
H  H66  1  0.54320000  0.27420000  0.73100000  1.0 0.1473600073
H  H67  1  0.17530000  0.45180000  0.27650000  1.0 0.1096226165
H  H68  1  0.54320000  0.81220000  0.26900000  1.0 0.1473600073
H  H69  1  0.54820000  0.82470000  0.72350000  1.0 0.1096226165
H  H70  1  0.18780000  0.45680000  0.73100000  1.0 0.1473600073
H  H71  1  0.10120000  0.82470000  0.27650000  1.0 0.1096226165
H  H72  1  0.72580000  0.45680000  0.26900000  1.0 0.1473600073
H  H73  1  0.98950000  0.87610000  0.11340000  1.0 0.118786539
H  H74  1  0.33670000  0.08550000  0.25120000  1.0 0.1704791688
H  H75  1  0.76270000  0.87610000  0.88660000  1.0 0.118786539
H  H76  1  0.83430000  0.08550000  0.74880000  1.0 0.1704791688
H  H77  1  0.12390000  0.01050000  0.88660000  1.0 0.118786539
H  H78  1  0.91450000  0.66330000  0.74880000  1.0 0.1704791688
H  H79  1  0.12390000  0.23730000  0.11340000  1.0 0.118786539
H  H80  1  0.91450000  0.16570000  0.25120000  1.0 0.1704791688
C  C1  1  0.46880000  0.27260000  0.60580000  1.0 0.0995148821
C  C2  1  0.30820000  0.18670000  0.61310000  1.0 0.1096226165
C  C3  1  0.37060000  0.13800000  0.68060000  1.0 0.1902811592
C  C4  1  0.26200000  0.03280000  0.68160000  1.0 -0.2188612456
C  C5  1  0.38570000  0.23870000  0.34480000  1.0 0.1096226165
C  C6  1  0.21600000  0.12850000  0.35170000  1.0 0.0906516639
C  C7  1  0.21960000  0.06280000  0.24360000  1.0 0.1968959374
C  C8  1  0.11440000  0.00180000  0.20260000  1.0 -0.2188612456
C  C9  1  0.66680000  0.86300000  0.39420000  1.0 0.0995148821
C  C10  1  0.57360000  0.69510000  0.38690000  1.0 0.1096226165
C  C11  1  0.45740000  0.69000000  0.31940000  1.0 0.1902811592
C  C12  1  0.35120000  0.58040000  0.31840000  1.0 -0.2188612456
C  C13  1  0.89390000  0.04090000  0.65520000  1.0 0.1096226165
C  C14  1  0.77680000  0.86430000  0.64830000  1.0 0.0906516639
C  C15  1  0.81920000  0.97600000  0.75640000  1.0 0.1968959374
C  C16  1  0.79920000  0.91180000  0.79740000  1.0 -0.2188612456
C  C17  1  0.13700000  0.53120000  0.80380000  1.0 0.0995148821
C  C18  1  0.30490000  0.69180000  0.87850000  1.0 0.1096226165
C  C19  1  0.31000000  0.62940000  0.76740000  1.0 0.1902811592
C  C20  1  0.41960000  0.73800000  0.77080000  1.0 -0.2188612456
C  C21  1  0.95910000  0.61430000  0.85300000  1.0 0.1096226165
C  C22  1  0.13570000  0.78400000  0.91250000  1.0 0.0906516639
C  C23  1  0.02400000  0.78040000  0.84320000  1.0 0.1968959374
C  C24  1  0.08820000  0.88560000  0.88740000  1.0 -0.2188612456
C  C25  1  0.72740000  0.33320000  0.19620000  1.0 0.0995148821
C  C26  1  0.81330000  0.42640000  0.12150000  1.0 0.1096226165
C  C27  1  0.86200000  0.54260000  0.23260000  1.0 0.1902811592
C  C28  1  0.96720000  0.64880000  0.22920000  1.0 -0.2188612456
C  C29  1  0.76130000  0.10610000  0.14700000  1.0 0.1096226165
C  C30  1  0.87150000  0.22320000  0.08750000  1.0 0.0906516639
C  C31  1  0.93720000  0.18080000  0.15680000  1.0 0.1968959374
C  C32  1  0.99820000  0.20080000  0.11260000  1.0 -0.2188612456
C  C33  1  0.46880000  0.86300000  0.19620000  1.0 0.0995148821
C  C34  1  0.30820000  0.69510000  0.12150000  1.0 0.1096226165
C  C35  1  0.37060000  0.69000000  0.23260000  1.0 0.1902811592
C  C36  1  0.26200000  0.58040000  0.22920000  1.0 -0.2188612456
C  C37  1  0.38570000  0.04090000  0.14700000  1.0 0.1096226165
C  C38  1  0.21600000  0.86430000  0.08750000  1.0 0.0906516639
C  C39  1  0.21960000  0.97600000  0.15680000  1.0 0.1968959374
C  C40  1  0.11440000  0.91180000  0.11260000  1.0 -0.2188612456
C  C41  1  0.66680000  0.27260000  0.80380000  1.0 0.0995148821
C  C42  1  0.57360000  0.18670000  0.87850000  1.0 0.1096226165
C  C43  1  0.45740000  0.13800000  0.76740000  1.0 0.1902811592
C  C44  1  0.35120000  0.03280000  0.77080000  1.0 -0.2188612456
C  C45  1  0.89390000  0.23870000  0.85300000  1.0 0.1096226165
C  C46  1  0.77680000  0.12850000  0.91250000  1.0 0.0906516639
C  C47  1  0.81920000  0.06280000  0.84320000  1.0 0.1968959374
C  C48  1  0.79920000  0.00180000  0.88740000  1.0 -0.2188612456
C  C49  1  0.13700000  0.33320000  0.60580000  1.0 0.0995148821
C  C50  1  0.30490000  0.42640000  0.61310000  1.0 0.1096226165
C  C51  1  0.31000000  0.54260000  0.68060000  1.0 0.1902811592
C  C52  1  0.41960000  0.64880000  0.68160000  1.0 -0.2188612456
C  C53  1  0.95910000  0.10610000  0.34480000  1.0 0.1096226165
C  C54  1  0.13570000  0.22320000  0.35170000  1.0 0.0906516639
C  C55  1  0.02400000  0.18080000  0.24360000  1.0 0.1968959374
C  C56  1  0.08820000  0.20080000  0.20260000  1.0 -0.2188612456
C  C57  1  0.72740000  0.53120000  0.39420000  1.0 0.0995148821
C  C58  1  0.81330000  0.69180000  0.38690000  1.0 0.1096226165
C  C59  1  0.86200000  0.62940000  0.31940000  1.0 0.1902811592
C  C60  1  0.96720000  0.73800000  0.31840000  1.0 -0.2188612456
C  C61  1  0.76130000  0.61430000  0.65520000  1.0 0.1096226165
C  C62  1  0.87150000  0.78400000  0.64830000  1.0 0.0906516639
C  C63  1  0.93720000  0.78040000  0.75640000  1.0 0.1968959374
C  C64  1  0.99820000  0.88560000  0.79740000  1.0 -0.2188612456
C  C65  1  0.24810000  0.97310000  0.72500000  1.0 -0.0578054572
C  C66  1  0.47080000  0.19790000  0.72710000  1.0 -0.2371330047
C  C67  1  0.24810000  0.52310000  0.27500000  1.0 -0.0578054572
C  C68  1  0.47080000  0.74370000  0.27290000  1.0 -0.2371330047
C  C69  1  0.47690000  0.75190000  0.72500000  1.0 -0.0578054572
C  C70  1  0.25630000  0.52920000  0.72710000  1.0 -0.2371330047
C  C71  1  0.02690000  0.75190000  0.27500000  1.0 -0.0578054572
C  C72  1  0.80210000  0.52920000  0.27290000  1.0 -0.2371330047
C  C73  1  0.06280000  0.92350000  0.13930000  1.0 -0.0518458458
C  C74  1  0.26980000  0.04770000  0.22210000  1.0 -0.2320122244
C  C75  1  0.78420000  0.92350000  0.86070000  1.0 -0.0518458458
C  C76  1  0.82560000  0.04770000  0.77790000  1.0 -0.2320122244
C  C77  1  0.07650000  0.93720000  0.86070000  1.0 -0.0518458458
C  C78  1  0.95230000  0.73020000  0.77790000  1.0 -0.2320122244
C  C79  1  0.07650000  0.21580000  0.13930000  1.0 -0.0518458458
C  C80  1  0.95230000  0.17440000  0.22210000  1.0 -0.2320122244
S  S1  1  0.47828000  0.52172000  0.50000000  1.0 1.3547794623
S  S2  1  0.02172000  0.97828000  0.50000000  1.0 1.3550963206
S  S3  1  0.02172000  0.52172000  0.04344000  1.0 1.3547794623
S  S4  1  0.47828000  0.97828000  0.95656000  1.0 1.3550963206
S  S5  1  0.57560000  0.23390000  0.34170000  1.0 1.3398298127
S  S6  1  0.89220000  0.23390000  0.65830000  1.0 1.3398298127
S  S7  1  0.76610000  0.10780000  0.34170000  1.0 1.3398298127
S  S8  1  0.76610000  0.42440000  0.65830000  1.0 1.3398298127
N  N1  1  0.44930000  0.30610000  0.56900000  1.0 -0.2059884882
N  N2  1  0.34370000  0.24860000  0.57210000  1.0 -0.1598233925
N  N3  1  0.38390000  0.19820000  0.63750000  1.0 -0.0202063671
N  N4  1  0.39930000  0.28600000  0.40530000  1.0 -0.1828235639
N  N5  1  0.29140000  0.21598000  0.40878000  1.0 -0.1653372915
N  N6  1  0.27160000  0.13940000  0.31080000  1.0 -0.0133837285
N  N7  1  0.73710000  0.88030000  0.43100000  1.0 -0.2059884882
N  N8  1  0.67650000  0.77160000  0.42790000  1.0 -0.1598233925
N  N9  1  0.56070000  0.74640000  0.36250000  1.0 -0.0202063671
N  N10  1  0.88070000  0.99400000  0.59470000  1.0 -0.1828235639
N  N11  1  0.80720000  0.88262000  0.59122000  1.0 -0.1653372915
N  N12  1  0.82860000  0.96080000  0.68920000  1.0 -0.0133837285
N  N13  1  0.11970000  0.55070000  0.85680000  1.0 -0.2059884882
N  N14  1  0.22840000  0.65630000  0.90490000  1.0 -0.1598233925
N  N15  1  0.25360000  0.61610000  0.81430000  1.0 -0.0202063671
N  N16  1  0.00600000  0.60070000  0.88670000  1.0 -0.1828235639
N  N17  1  0.11738000  0.70860000  0.92458000  1.0 -0.1653372915
N  N18  1  0.03920000  0.72840000  0.86780000  1.0 -0.0133837285
N  N19  1  0.69390000  0.26290000  0.14320000  1.0 -0.2059884882
N  N20  1  0.75140000  0.32350000  0.09510000  1.0 -0.1598233925
N  N21  1  0.80180000  0.43930000  0.18570000  1.0 -0.0202063671
N  N22  1  0.71400000  0.11930000  0.11330000  1.0 -0.1828235639
N  N23  1  0.78402000  0.19280000  0.07542000  1.0 -0.1653372915
N  N24  1  0.86060000  0.17140000  0.13220000  1.0 -0.0133837285
N  N25  1  0.44930000  0.88030000  0.14320000  1.0 -0.2059884882
N  N26  1  0.34370000  0.77160000  0.09510000  1.0 -0.1598233925
N  N27  1  0.38390000  0.74640000  0.18570000  1.0 -0.0202063671
N  N28  1  0.39930000  0.99400000  0.11330000  1.0 -0.1828235639
N  N29  1  0.29140000  0.88262000  0.07542000  1.0 -0.1653372915
N  N30  1  0.27160000  0.96080000  0.13220000  1.0 -0.0133837285
N  N31  1  0.73710000  0.30610000  0.85680000  1.0 -0.2059884882
N  N32  1  0.67650000  0.24860000  0.90490000  1.0 -0.1598233925
N  N33  1  0.56070000  0.19820000  0.81430000  1.0 -0.0202063671
N  N34  1  0.88070000  0.28600000  0.88670000  1.0 -0.1828235639
N  N35  1  0.80720000  0.21598000  0.92458000  1.0 -0.1653372915
N  N36  1  0.82860000  0.13940000  0.86780000  1.0 -0.0133837285
N  N37  1  0.11970000  0.26290000  0.56900000  1.0 -0.2059884882
N  N38  1  0.22840000  0.32350000  0.57210000  1.0 -0.1598233925
N  N39  1  0.25360000  0.43930000  0.63750000  1.0 -0.0202063671
N  N40  1  0.00600000  0.11930000  0.40530000  1.0 -0.1828235639
N  N41  1  0.11738000  0.19280000  0.40878000  1.0 -0.1653372915
N  N42  1  0.03920000  0.17140000  0.31080000  1.0 -0.0133837285
N  N43  1  0.69390000  0.55070000  0.43100000  1.0 -0.2059884882
N  N44  1  0.75140000  0.65630000  0.42790000  1.0 -0.1598233925
N  N45  1  0.80180000  0.61610000  0.36250000  1.0 -0.0202063671
N  N46  1  0.71400000  0.60070000  0.59470000  1.0 -0.1828235639
N  N47  1  0.78402000  0.70860000  0.59122000  1.0 -0.1653372915
N  N48  1  0.86060000  0.72840000  0.68920000  1.0 -0.0133837285
O  O1  1  0.44290000  0.43980000  0.53470000  1.0 -0.664467101
O  O2  1  0.37690000  0.46200000  0.44990000  1.0 -0.6795746284
O  O3  1  0.90510000  0.90820000  0.46530000  1.0 -0.664467101
O  O4  1  0.01210000  0.92700000  0.55010000  1.0 -0.6795746284
O  O5  1  0.09180000  0.55710000  0.99690000  1.0 -0.664467101
O  O6  1  0.07300000  0.62310000  0.08510000  1.0 -0.6795746284
O  O7  1  0.56020000  0.09490000  0.00310000  1.0 -0.664467101
O  O8  1  0.53800000  0.98790000  0.91490000  1.0 -0.6795746284
O  O9  1  0.44290000  0.90820000  0.00310000  1.0 -0.664467101
O  O10  1  0.37690000  0.92700000  0.91490000  1.0 -0.6795746284
O  O11  1  0.90510000  0.43980000  0.99690000  1.0 -0.664467101
O  O12  1  0.01210000  0.46200000  0.08510000  1.0 -0.6795746284
O  O13  1  0.09180000  0.09490000  0.53470000  1.0 -0.664467101
O  O14  1  0.07300000  0.98790000  0.44990000  1.0 -0.6795746284
O  O15  1  0.56020000  0.55710000  0.46530000  1.0 -0.664467101
O  O16  1  0.53800000  0.62310000  0.55010000  1.0 -0.6795746284
O  O17  1  0.61876000  0.38124000  0.50000000  1.0 -0.5031877356
O  O18  1  0.88124000  0.11876000  0.50000000  1.0 -0.5031877356
O  O19  1  0.88124000  0.38124000  0.76248000  1.0 -0.5031877356
O  O20  1  0.61876000  0.11876000  0.23752000  1.0 -0.5031877356
O  O21  1  0.52140000  0.21500000  0.39100000  1.0 -0.6302030282
O  O22  1  0.52140000  0.13040000  0.30640000  1.0 -0.6302030282
O  O23  1  0.55340000  0.26570000  0.28770000  1.0 -0.7102748947
O  O24  1  0.70100000  0.33510000  0.36590000  1.0 -0.6669978397
O  O25  1  0.82400000  0.13040000  0.60900000  1.0 -0.6302030282
O  O26  1  0.82400000  0.21500000  0.69360000  1.0 -0.6302030282
O  O27  1  0.97800000  0.26570000  0.71230000  1.0 -0.7102748947
O  O28  1  0.96920000  0.33510000  0.63410000  1.0 -0.6669978397
O  O29  1  0.78500000  0.17600000  0.30640000  1.0 -0.6302030282
O  O30  1  0.86960000  0.17600000  0.39100000  1.0 -0.6302030282
O  O31  1  0.73430000  0.02200000  0.28770000  1.0 -0.7102748947
O  O32  1  0.66490000  0.03080000  0.36590000  1.0 -0.6669978397
O  O33  1  0.86960000  0.47860000  0.69360000  1.0 -0.6302030282
O  O34  1  0.78500000  0.47860000  0.60900000  1.0 -0.6302030282
O  O35  1  0.73430000  0.44660000  0.71230000  1.0 -0.7102748947
O  O36  1  0.66490000  0.29900000  0.63410000  1.0 -0.6669978397
