# DDEC6 charges by PACMAN v1.1 (https://github.com/mtap-research/PACMAN-charge/)
data_WOXROQ_ASR_pacman
_symmetry_space_group_name_H-M   'P 1'
_cell_length_a   8.89667000
_cell_length_b   8.89667000
_cell_length_c   11.07250000
_cell_angle_alpha   85.92310000
_cell_angle_beta   94.07690000
_cell_angle_gamma   138.37700000
_symmetry_Int_Tables_number   1
_chemical_formula_structural   Ti2P4O13F
_chemical_formula_sum   'Ti4 P8 O26 F2'
_cell_volume   580.43949158
_cell_formula_units_Z   2
loop_
 _symmetry_equiv_pos_site_id
 _symmetry_equiv_pos_as_xyz
  1  'x, y, z'
loop_
 _atom_site_type_symbol
 _atom_site_label
 _atom_site_symmetry_multiplicity
 _atom_site_fract_x
 _atom_site_fract_y
 _atom_site_fract_z
 _atom_site_occupancy
 _atom_site_charge
Ti  Ti1  1  0.85890000  0.14110000  0.60040000  1.0 2.0709791542
Ti  Ti2  1  0.14110000  0.85890000  0.39960000  1.0 2.0709791542
Ti  Ti3  1  0.78330000  0.21670000  0.14960000  1.0 2.0900940061
Ti  Ti4  1  0.21670000  0.78330000  0.85040000  1.0 2.0900940061
P  P1  1  0.30430000  0.69570000  0.58640000  1.0 1.5797890782
P  P2  1  0.69570000  0.30430000  0.41360000  1.0 1.5797890782
P  P3  1  0.76820000  0.23180000  0.86120000  1.0 1.6381574035
P  P4  1  0.23180000  0.76820000  0.13880000  1.0 1.6381574035
P  P5  1  0.87180000  0.98600000  0.33090000  1.0 0.780057466
P  P6  1  0.98600000  0.87180000  0.66910000  1.0 0.780057466
P  P7  1  0.12820000  0.01400000  0.66910000  1.0 0.780057466
P  P8  1  0.01400000  0.12820000  0.33090000  1.0 0.780057466
O  O1  1  0.55380000  0.83340000  0.59240000  1.0 -0.7456579447
O  O2  1  0.83340000  0.55380000  0.40760000  1.0 -0.7456579447
O  O3  1  0.44620000  0.16660000  0.40760000  1.0 -0.7456579447
O  O4  1  0.16660000  0.44620000  0.59240000  1.0 -0.7456579447
O  O5  1  0.25080000  0.74920000  0.46770000  1.0 -0.8209561944
O  O6  1  0.74920000  0.25080000  0.53230000  1.0 -0.8209561944
O  O7  1  0.90620000  0.09380000  0.44360000  1.0 -0.5424063742
O  O8  1  0.09380000  0.90620000  0.55640000  1.0 -0.5424063742
O  O9  1  0.02950000  0.97050000  0.32700000  1.0 -0.5331409812
O  O10  1  0.97050000  0.02950000  0.67300000  1.0 -0.5331409812
O  O11  1  0.82810000  0.17190000  0.76240000  1.0 -0.7924933474
O  O12  1  0.17190000  0.82810000  0.23760000  1.0 -0.7924933474
O  O13  1  0.81750000  0.18250000  0.98420000  1.0 -0.8065571427
O  O14  1  0.18250000  0.81750000  0.01580000  1.0 -0.8065571427
O  O15  1  0.90880000  0.48060000  0.84980000  1.0 -0.7924933474
O  O16  1  0.48060000  0.90880000  0.15020000  1.0 -0.7924933474
O  O17  1  0.09120000  0.51940000  0.15020000  1.0 -0.7924933474
O  O18  1  0.51940000  0.09120000  0.84980000  1.0 -0.7924933474
O  O19  1  0.25060000  0.74940000  0.69070000  1.0 -0.8252482056
O  O20  1  0.74940000  0.25060000  0.30930000  1.0 -0.8252482056
O  O21  1  0.89600000  0.10400000  0.21440000  1.0 -0.5171298325
O  O22  1  0.10400000  0.89600000  0.78560000  1.0 -0.5171298325
O  O23  1  0.62420000  0.73760000  0.32470000  1.0 -0.2658649921
O  O24  1  0.73760000  0.62420000  0.67530000  1.0 -0.2658649921
O  O25  1  0.37580000  0.26240000  0.67530000  1.0 -0.2658649921
O  O26  1  0.26240000  0.37580000  0.32470000  1.0 -0.2658649921
F  F1  1  0.67660000  0.32340000  0.08960000  1.0 -0.4931699276
F  F2  1  0.32340000  0.67660000  0.91040000  1.0 -0.4931699276
