# DDEC6 charges by PACMAN v1.1 (https://github.com/mtap-research/PACMAN-charge/)
data_WOXRIK_FSR_pacman
_symmetry_space_group_name_H-M   'P 1'
_cell_length_a   8.91001000
_cell_length_b   8.91001000
_cell_length_c   22.20800000
_cell_angle_alpha   85.45660000
_cell_angle_beta   94.54340000
_cell_angle_gamma   138.33300000
_symmetry_Int_Tables_number   1
_chemical_formula_structural   Ti2P3O12F
_chemical_formula_sum   'Ti8 P12 O48 F4'
_cell_volume   1167.86183684
_cell_formula_units_Z   4
loop_
 _symmetry_equiv_pos_site_id
 _symmetry_equiv_pos_as_xyz
  1  'x, y, z'
loop_
 _atom_site_type_symbol
 _atom_site_label
 _atom_site_symmetry_multiplicity
 _atom_site_fract_x
 _atom_site_fract_y
 _atom_site_fract_z
 _atom_site_occupancy
 _atom_site_charge
Ti  Ti1  1  0.71030000  0.27570000  0.42470000  1.0 2.1402832808
Ti  Ti2  1  0.27570000  0.71030000  0.07530000  1.0 2.1402832808
Ti  Ti3  1  0.28970000  0.72430000  0.57530000  1.0 2.1402832808
Ti  Ti4  1  0.72430000  0.28970000  0.92470000  1.0 2.1402832808
Ti  Ti5  1  0.64270000  0.36170000  0.19890000  1.0 2.168136432
Ti  Ti6  1  0.36170000  0.64270000  0.30110000  1.0 2.168136432
Ti  Ti7  1  0.35730000  0.63830000  0.80110000  1.0 2.1625442447
Ti  Ti8  1  0.63830000  0.35730000  0.69890000  1.0 2.168136432
P  P1  1  0.26780000  0.72900000  0.43090000  1.0 1.6367528381
P  P2  1  0.72900000  0.26780000  0.06910000  1.0 1.627755064
P  P3  1  0.73220000  0.27100000  0.56910000  1.0 1.6367528381
P  P4  1  0.27100000  0.73220000  0.93090000  1.0 1.6367528381
P  P5  1  0.63000000  0.51480000  0.33310000  1.0 1.5588781776
P  P6  1  0.51480000  0.63000000  0.16690000  1.0 1.5588781776
P  P7  1  0.37000000  0.48520000  0.66690000  1.0 1.5588781776
P  P8  1  0.48520000  0.37000000  0.83310000  1.0 1.5588781776
P  P9  1  0.80370000  0.19490000  0.29360000  1.0 1.627755064
P  P10  1  0.19490000  0.80370000  0.20640000  1.0 1.627755064
P  P11  1  0.19630000  0.80510000  0.70640000  1.0 1.627755064
P  P12  1  0.80510000  0.19630000  0.79360000  1.0 1.627755064
O  O1  1  0.40030000  0.97550000  0.42280000  1.0 -0.7400124449
O  O2  1  0.97550000  0.40030000  0.07720000  1.0 -0.7400124449
O  O3  1  0.59970000  0.02450000  0.57720000  1.0 -0.7400124449
O  O4  1  0.02450000  0.59970000  0.92280000  1.0 -0.7400124449
O  O5  1  0.75320000  0.25020000  0.34620000  1.0 -0.7727337836
O  O6  1  0.25020000  0.75320000  0.15380000  1.0 -0.7727337836
O  O7  1  0.24680000  0.74980000  0.65380000  1.0 -0.7727337836
O  O8  1  0.74980000  0.24680000  0.84620000  1.0 -0.7727337836
O  O9  1  0.01720000  0.58240000  0.42750000  1.0 -0.7400124449
O  O10  1  0.58240000  0.01720000  0.07250000  1.0 -0.7400124449
O  O11  1  0.98280000  0.41760000  0.57250000  1.0 -0.7400124449
O  O12  1  0.41760000  0.98280000  0.92750000  1.0 -0.7523704468
O  O13  1  0.32810000  0.69230000  0.49280000  1.0 -0.7523704468
O  O14  1  0.69230000  0.32810000  0.00720000  1.0 -0.7523704468
O  O15  1  0.67190000  0.30770000  0.50720000  1.0 -0.7523704468
O  O16  1  0.30770000  0.67190000  0.99280000  1.0 -0.7523704468
O  O17  1  0.60980000  0.39940000  0.39200000  1.0 -0.7208092121
O  O18  1  0.39940000  0.60980000  0.10800000  1.0 -0.7208092121
O  O19  1  0.39020000  0.60060000  0.60800000  1.0 -0.7208092121
O  O20  1  0.60060000  0.39020000  0.89200000  1.0 -0.7208092121
O  O21  1  0.58900000  0.39900000  0.27730000  1.0 -0.7400124449
O  O22  1  0.39900000  0.58900000  0.22270000  1.0 -0.7400124449
O  O23  1  0.41100000  0.60100000  0.72270000  1.0 -0.7400124449
O  O24  1  0.60100000  0.41100000  0.77730000  1.0 -0.7400124449
O  O25  1  0.87750000  0.75890000  0.33620000  1.0 -0.5404506533
O  O26  1  0.75890000  0.87750000  0.16380000  1.0 -0.5404506533
O  O27  1  0.12250000  0.24110000  0.66380000  1.0 -0.5404506533
O  O28  1  0.24110000  0.12250000  0.83620000  1.0 -0.5404506533
O  O29  1  0.46500000  0.52260000  0.33500000  1.0 -0.7400124449
O  O30  1  0.52260000  0.46500000  0.16500000  1.0 -0.7400124449
O  O31  1  0.53500000  0.47740000  0.66500000  1.0 -0.7400124449
O  O32  1  0.47740000  0.53500000  0.83500000  1.0 -0.7400124449
O  O33  1  0.05260000  0.33180000  0.29650000  1.0 -0.7006367354
O  O34  1  0.33180000  0.05260000  0.20350000  1.0 -0.7006367354
O  O35  1  0.94740000  0.66820000  0.70350000  1.0 -0.7006367354
O  O36  1  0.66820000  0.94740000  0.79650000  1.0 -0.7006367354
O  O37  1  0.66410000  0.94490000  0.29700000  1.0 -0.7208092121
O  O38  1  0.94490000  0.66410000  0.20300000  1.0 -0.7208092121
O  O39  1  0.33590000  0.05510000  0.70300000  1.0 -0.7208092121
O  O40  1  0.05510000  0.33590000  0.79700000  1.0 -0.7208092121
O  O41  1  0.32510000  0.66830000  0.38140000  1.0 -0.7306107043
O  O42  1  0.66830000  0.32510000  0.11860000  1.0 -0.7306107043
O  O43  1  0.67490000  0.33170000  0.61860000  1.0 -0.7306107043
O  O44  1  0.33170000  0.67490000  0.88140000  1.0 -0.7306107043
O  O45  1  0.74800000  0.24820000  0.23440000  1.0 -0.7727337836
O  O46  1  0.24820000  0.74800000  0.26560000  1.0 -0.7727337836
O  O47  1  0.25200000  0.75180000  0.76560000  1.0 -0.7727337836
O  O48  1  0.75180000  0.25200000  0.73440000  1.0 -0.7727337836
F  F1  1  0.80830000  0.16010000  0.45540000  1.0 -0.4538644908
F  F2  1  0.16010000  0.80830000  0.04460000  1.0 -0.4538644908
F  F3  1  0.19170000  0.83990000  0.54460000  1.0 -0.4538644908
F  F4  1  0.83990000  0.19170000  0.95540000  1.0 -0.4538644908
