# DDEC6 charges by PACMAN v1.1 (https://github.com/mtap-research/PACMAN-charge/)
data_WOXVIR_ASR_pacman
_symmetry_space_group_name_H-M   'P 1'
_cell_length_a   13.42050000
_cell_length_b   13.42050000
_cell_length_c   13.42050000
_cell_angle_alpha   123.12300000
_cell_angle_beta   123.12300000
_cell_angle_gamma   84.67150000
_symmetry_Int_Tables_number   1
_chemical_formula_structural   La2H120C68N3(ClO2)8
_chemical_formula_sum   'La2 H120 C68 N3 Cl8 O16'
_cell_volume   1620.84314839
_cell_formula_units_Z   1
loop_
 _symmetry_equiv_pos_site_id
 _symmetry_equiv_pos_as_xyz
  1  'x, y, z'
loop_
 _atom_site_type_symbol
 _atom_site_label
 _atom_site_symmetry_multiplicity
 _atom_site_fract_x
 _atom_site_fract_y
 _atom_site_fract_z
 _atom_site_occupancy
 _atom_site_charge
La  La1  1  0.72698000  0.72698000  0.00000000  1.0 1.7945577603
La  La2  1  0.27302000  0.27302000  0.00000000  1.0 1.7945577603
H  H1  1  0.29765000  0.63719000  0.56622000  1.0 0.0861165599
H  H2  1  0.38394000  0.77543000  0.69415000  1.0 0.0780825343
H  H3  1  0.23805000  0.81051000  0.72560000  1.0 0.0488291744
H  H4  1  0.32774000  0.73336000  0.77188000  1.0 0.1077934529
H  H5  1  0.18782000  0.66202000  0.62442000  1.0 0.0708110479
H  H6  1  0.29692000  0.70491000  0.69711000  1.0 0.0232059069
H  H7  1  0.16152000  0.63979000  0.54267000  1.0 0.0780825343
H  H8  1  0.18044000  0.74830000  0.69326000  1.0 0.0861165599
H  H9  1  0.14009000  0.59448000  0.27843000  1.0 0.0861165599
H  H10  1  0.22338000  0.55817000  0.38817000  1.0 0.0598435314
H  H11  1  0.07097000  0.73143000  0.43378000  1.0 0.0861165599
H  H12  1  0.08128000  0.68978000  0.30584000  1.0 0.0780825343
H  H13  1  0.08491000  0.51245000  0.27440000  1.0 0.0488291744
H  H14  1  0.96148000  0.55586000  0.22812000  1.0 0.1077934529
H  H15  1  0.03760000  0.56340000  0.37558000  1.0 0.0708110479
H  H16  1  0.00780000  0.59981000  0.30289000  1.0 0.0232059069
H  H17  1  0.09712000  0.61885000  0.45733000  1.0 0.0780825343
H  H18  1  0.05504000  0.48718000  0.30674000  1.0 0.0861165599
H  H19  1  0.31605000  0.86166000  0.72157000  1.0 0.0861165599
H  H20  1  0.17000000  0.83521000  0.61183000  1.0 0.0598435314
H  H21  1  0.26857000  0.70235000  0.33954000  1.0 0.0861165599
H  H22  1  0.31022000  0.61606000  0.39149000  1.0 0.0780825343
H  H23  1  0.48755000  0.76195000  0.57246000  1.0 0.0488291744
H  H24  1  0.44414000  0.67226000  0.40562000  1.0 0.1077934529
H  H25  1  0.43660000  0.81218000  0.47420000  1.0 0.0708110479
H  H26  1  0.40019000  0.70308000  0.40799000  1.0 0.0232059069
H  H27  1  0.38115000  0.83848000  0.47827000  1.0 0.0780825343
H  H28  1  0.51282000  0.81956000  0.56786000  1.0 0.0861165599
H  H29  1  0.13834000  0.85991000  0.45439000  1.0 0.0861165599
H  H30  1  0.16479000  0.77662000  0.33479000  1.0 0.0598435314
H  H31  1  0.36281000  0.92903000  0.66046000  1.0 0.0861165599
H  H32  1  0.22457000  0.91872000  0.60850000  1.0 0.0780825343
H  H33  1  0.18949000  0.91509000  0.42754000  1.0 0.0488291744
H  H34  1  0.26664000  0.03852000  0.59438000  1.0 0.1077934529
H  H35  1  0.33798000  0.96240000  0.52580000  1.0 0.0708110479
H  H36  1  0.29509000  0.99220000  0.59201000  1.0 0.0232059069
H  H37  1  0.36021000  0.90288000  0.52173000  1.0 0.0780825343
H  H38  1  0.25170000  0.94496000  0.43214000  1.0 0.0861165599
H  H39  1  0.40552000  0.68395000  0.54561000  1.0 0.0861165599
H  H40  1  0.44183000  0.83000000  0.66521000  1.0 0.0598435314
H  H41  1  0.73143000  0.29765000  0.66046000  1.0 0.0861165599
H  H42  1  0.68979000  0.38394000  0.60850000  1.0 0.0780825343
H  H43  1  0.51245000  0.23805000  0.42754000  1.0 0.0488291744
H  H44  1  0.55586000  0.32774000  0.59438000  1.0 0.1077934529
H  H45  1  0.56340000  0.18782000  0.52580000  1.0 0.0708110479
H  H46  1  0.59981000  0.29692000  0.59201000  1.0 0.0232059069
H  H47  1  0.61885000  0.16152000  0.52173000  1.0 0.0780825343
H  H48  1  0.48718000  0.18044000  0.43214000  1.0 0.0861165599
H  H49  1  0.86166000  0.14009000  0.54561000  1.0 0.0861165599
H  H50  1  0.83521000  0.22338000  0.66521000  1.0 0.0598435314
H  H51  1  0.63719000  0.07097000  0.33954000  1.0 0.0861165599
H  H52  1  0.77544000  0.08128000  0.39149000  1.0 0.0780825343
H  H53  1  0.81051000  0.08491000  0.57246000  1.0 0.0488291744
H  H54  1  0.73336000  0.96148000  0.40562000  1.0 0.1077934529
H  H55  1  0.66202000  0.03760000  0.47420000  1.0 0.0708110479
H  H56  1  0.70491000  0.00780000  0.40799000  1.0 0.0232059069
H  H57  1  0.63979000  0.09712000  0.47827000  1.0 0.0780825343
H  H58  1  0.74830000  0.05504000  0.56786000  1.0 0.0861165599
H  H59  1  0.59448000  0.31605000  0.45439000  1.0 0.0861165599
H  H60  1  0.55817000  0.17000000  0.33479000  1.0 0.0598435314
H  H61  1  0.70235000  0.36281000  0.43378000  1.0 0.0861165599
H  H62  1  0.61606000  0.22456000  0.30584000  1.0 0.0780825343
H  H63  1  0.76195000  0.18949000  0.27440000  1.0 0.0488291744
H  H64  1  0.67226000  0.26664000  0.22812000  1.0 0.1077934529
H  H65  1  0.81218000  0.33798000  0.37558000  1.0 0.0708110479
H  H66  1  0.70308000  0.29509000  0.30289000  1.0 0.0232059069
H  H67  1  0.83848000  0.36021000  0.45733000  1.0 0.0780825343
H  H68  1  0.81956000  0.25170000  0.30674000  1.0 0.0861165599
H  H69  1  0.85991000  0.40552000  0.72157000  1.0 0.0861165599
H  H70  1  0.77662000  0.44183000  0.61183000  1.0 0.0598435314
H  H71  1  0.92903000  0.26857000  0.56622000  1.0 0.0861165599
H  H72  1  0.91872000  0.31022000  0.69415000  1.0 0.0780825343
H  H73  1  0.91509000  0.48755000  0.72560000  1.0 0.0488291744
H  H74  1  0.03852000  0.44414000  0.77188000  1.0 0.1077934529
H  H75  1  0.96240000  0.43660000  0.62442000  1.0 0.0708110479
H  H76  1  0.99220000  0.40019000  0.69711000  1.0 0.0232059069
H  H77  1  0.90288000  0.38115000  0.54267000  1.0 0.0780825343
H  H78  1  0.94496000  0.51282000  0.69326000  1.0 0.0861165599
H  H79  1  0.68395000  0.13834000  0.27843000  1.0 0.0861165599
H  H80  1  0.83000000  0.16479000  0.38817000  1.0 0.0598435314
H  H81  1  0.96489000  0.03188000  0.14653000  1.0 0.0598435314
H  H82  1  0.84188000  0.00034000  0.99422000  1.0 0.0598435314
H  H83  1  0.04112000  0.23658000  0.21450000  1.0 0.0598435314
H  H84  1  0.91421000  0.22583000  0.19758000  1.0 0.0338246178
H  H85  1  0.91244000  0.20549000  0.06743000  1.0 0.0598435314
H  H86  1  0.88535000  0.81836000  0.85347000  1.0 0.0598435314
H  H87  1  0.00612000  0.84766000  0.00578000  1.0 0.0598435314
H  H88  1  0.02208000  0.82662000  0.78550000  1.0 0.0598435314
H  H89  1  0.02825000  0.71663000  0.80242000  1.0 0.0338246178
H  H90  1  0.13806000  0.84501000  0.93257000  1.0 0.0598435314
H  H91  1  0.03188000  0.88535000  0.06699000  1.0 0.0598435314
H  H92  1  0.00034000  0.00612000  0.15846000  1.0 0.0598435314
H  H93  1  0.23658000  0.02208000  0.19546000  1.0 0.0598435314
H  H94  1  0.22583000  0.02825000  0.31162000  1.0 0.0338246178
H  H95  1  0.20549000  0.13806000  0.29305000  1.0 0.0598435314
H  H96  1  0.81836000  0.96489000  0.93301000  1.0 0.0598435314
H  H97  1  0.84766000  0.84188000  0.84154000  1.0 0.0598435314
H  H98  1  0.82662000  0.04112000  0.80454000  1.0 0.0598435314
H  H99  1  0.71663000  0.91421000  0.68838000  1.0 0.0338246178
H  H100  1  0.84501000  0.91244000  0.70695000  1.0 0.0598435314
H  H101  1  0.03511000  0.96812000  0.85347000  1.0 0.0598435314
H  H102  1  0.15812000  0.99966000  0.00578000  1.0 0.0598435314
H  H103  1  0.95888000  0.76342000  0.78550000  1.0 0.0598435314
H  H104  1  0.08579000  0.77417000  0.80242000  1.0 0.0338246178
H  H105  1  0.08756000  0.79451000  0.93257000  1.0 0.0598435314
H  H106  1  0.11465000  0.18164000  0.14653000  1.0 0.0598435314
H  H107  1  0.99388000  0.15234000  0.99422000  1.0 0.0598435314
H  H108  1  0.97792000  0.17338000  0.21450000  1.0 0.0598435314
H  H109  1  0.97175000  0.28337000  0.19758000  1.0 0.0338246178
H  H110  1  0.86194000  0.15499000  0.06743000  1.0 0.0598435314
H  H111  1  0.96812000  0.11465000  0.93301000  1.0 0.0598435314
H  H112  1  0.99966000  0.99388000  0.84154000  1.0 0.0598435314
H  H113  1  0.76342000  0.97792000  0.80454000  1.0 0.0598435314
H  H114  1  0.77417000  0.97175000  0.68838000  1.0 0.0338246178
H  H115  1  0.79451000  0.86194000  0.70695000  1.0 0.0598435314
H  H116  1  0.18164000  0.03511000  0.06699000  1.0 0.0598435314
H  H117  1  0.15234000  0.15812000  0.15846000  1.0 0.0598435314
H  H118  1  0.17338000  0.95888000  0.19546000  1.0 0.0598435314
H  H119  1  0.28337000  0.08579000  0.31162000  1.0 0.0338246178
H  H120  1  0.15499000  0.08756000  0.29305000  1.0 0.0598435314
C  C1  1  0.29560000  0.72450000  0.61710000  1.0 -0.0719562668
C  C2  1  0.26060000  0.73260000  0.68800000  1.0 -0.1432896585
C  C3  1  0.21790000  0.71790000  0.64000000  1.0 -0.1432896585
C  C4  1  0.16850000  0.61150000  0.37300000  1.0 -0.0719562668
C  C5  1  0.10740000  0.67850000  0.38290000  1.0 -0.0719562668
C  C6  1  0.04460000  0.57260000  0.31200000  1.0 -0.1432896585
C  C7  1  0.07790000  0.57790000  0.36000000  1.0 -0.1432896585
C  C8  1  0.23850000  0.79550000  0.62700000  1.0 -0.0719562668
C  C9  1  0.32150000  0.70440000  0.42890000  1.0 -0.0719562668
C  C10  1  0.42740000  0.73940000  0.47200000  1.0 -0.1432896585
C  C11  1  0.42210000  0.78210000  0.50000000  1.0 -0.1432896585
C  C12  1  0.20450000  0.83150000  0.44300000  1.0 -0.0719562668
C  C13  1  0.27550000  0.89260000  0.57110000  1.0 -0.0719562668
C  C14  1  0.26740000  0.95540000  0.52800000  1.0 -0.1432896585
C  C15  1  0.28210000  0.92210000  0.50000000  1.0 -0.1432896585
C  C16  1  0.38850000  0.76150000  0.55700000  1.0 -0.0719562668
C  C17  1  0.67850000  0.29560000  0.57110000  1.0 -0.0719562668
C  C18  1  0.57260000  0.26060000  0.52800000  1.0 -0.1432896585
C  C19  1  0.57790000  0.21790000  0.50000000  1.0 -0.1432896585
C  C20  1  0.79550000  0.16850000  0.55700000  1.0 -0.0719562668
C  C21  1  0.72450000  0.10740000  0.42890000  1.0 -0.0719562668
C  C22  1  0.73260000  0.04460000  0.47200000  1.0 -0.1432896585
C  C23  1  0.71790000  0.07790000  0.50000000  1.0 -0.1432896585
C  C24  1  0.61150000  0.23850000  0.44300000  1.0 -0.0719562668
C  C25  1  0.70440000  0.27550000  0.38290000  1.0 -0.0719562668
C  C26  1  0.73940000  0.26740000  0.31200000  1.0 -0.1432896585
C  C27  1  0.78210000  0.28210000  0.36000000  1.0 -0.1432896585
C  C28  1  0.83150000  0.38850000  0.62700000  1.0 -0.0719562668
C  C29  1  0.89260000  0.32150000  0.61710000  1.0 -0.0719562668
C  C30  1  0.95540000  0.42740000  0.68800000  1.0 -0.1432896585
C  C31  1  0.92210000  0.42210000  0.64000000  1.0 -0.1432896585
C  C32  1  0.76150000  0.20450000  0.37300000  1.0 -0.0719562668
C  C33  1  0.93170000  0.04600000  0.07030000  1.0 -0.0585844104
C  C34  1  0.97570000  0.86140000  0.92970000  1.0 -0.0585844104
C  C35  1  0.04600000  0.97570000  0.11430000  1.0 -0.0585844104
C  C36  1  0.86140000  0.93170000  0.88570000  1.0 -0.0585844104
C  C37  1  0.06830000  0.95400000  0.92970000  1.0 -0.0585844104
C  C38  1  0.02430000  0.13860000  0.07030000  1.0 -0.0585844104
C  C39  1  0.95400000  0.02430000  0.88570000  1.0 -0.0585844104
C  C40  1  0.13860000  0.06830000  0.11430000  1.0 -0.0585844104
C  C41  1  0.95190000  0.19290000  0.14480000  1.0 -0.2819254
C  C42  1  0.04810000  0.80710000  0.85520000  1.0 -0.2819254
C  C43  1  0.19290000  0.04810000  0.24100000  1.0 -0.2819254
C  C44  1  0.80710000  0.95190000  0.75900000  1.0 -0.2819254
C  C45  1  0.94490000  0.97490000  0.35760000  1.0 0.1476612564
C  C46  1  0.03100000  0.09000000  0.48620000  1.0 -0.1316241009
C  C47  1  0.91580000  0.87690000  0.37250000  1.0 0.1927115217
C  C48  1  0.61730000  0.58730000  0.64240000  1.0 0.1476612564
C  C49  1  0.60380000  0.54480000  0.51380000  1.0 -0.1316241009
C  C50  1  0.50440000  0.54330000  0.62750000  1.0 0.1927115217
C  C51  1  0.97490000  0.61730000  0.03000000  1.0 0.1476612564
C  C52  1  0.09000000  0.60380000  0.05900000  1.0 -0.1316241009
C  C53  1  0.87690000  0.50440000  0.96110000  1.0 0.1927115217
C  C54  1  0.58730000  0.94490000  0.97000000  1.0 0.1476612564
C  C55  1  0.54480000  0.03100000  0.94100000  1.0 -0.1316241009
C  C56  1  0.54330000  0.91580000  0.03890000  1.0 0.1927115217
C  C57  1  0.05510000  0.02510000  0.64240000  1.0 0.1476612564
C  C58  1  0.96900000  0.91000000  0.51380000  1.0 -0.1316241009
C  C59  1  0.08420000  0.12310000  0.62750000  1.0 0.1927115217
C  C60  1  0.38270000  0.41270000  0.35760000  1.0 0.1476612564
C  C61  1  0.39620000  0.45520000  0.48620000  1.0 -0.1316241009
C  C62  1  0.49560000  0.45670000  0.37250000  1.0 0.1927115217
C  C63  1  0.02510000  0.38270000  0.97000000  1.0 0.1476612564
C  C64  1  0.91000000  0.39620000  0.94100000  1.0 -0.1316241009
C  C65  1  0.12310000  0.49560000  0.03890000  1.0 0.1927115217
C  C66  1  0.41270000  0.05510000  0.03000000  1.0 0.1476612564
C  C67  1  0.45520000  0.96900000  0.05900000  1.0 -0.1316241009
C  C68  1  0.45670000  0.08420000  0.96110000  1.0 0.1927115217
N  N1  1  0.25000000  0.75000000  0.50000000  1.0 0.0598435314
N  N2  1  0.75000000  0.25000000  0.50000000  1.0 0.0598435314
N  N3  1  0.00000000  0.00000000  0.00000000  1.0 0.1569493066
Cl  Cl1  1  0.07068000  0.19859000  0.47175000  1.0 -0.1757385723
Cl  Cl2  1  0.72684000  0.59893000  0.52825000  1.0 -0.1757385723
Cl  Cl3  1  0.19859000  0.72684000  0.12791000  1.0 -0.1757385723
Cl  Cl4  1  0.59893000  0.07068000  0.87209000  1.0 -0.1757385723
Cl  Cl5  1  0.92932000  0.80141000  0.52825000  1.0 -0.1757385723
Cl  Cl6  1  0.27316000  0.40107000  0.47175000  1.0 -0.1757385723
Cl  Cl7  1  0.80141000  0.27316000  0.87209000  1.0 -0.1757385723
Cl  Cl8  1  0.40107000  0.92932000  0.12791000  1.0 -0.1757385723
O  O1  1  0.84480000  0.77260000  0.25420000  1.0 -0.4516004372
O  O2  1  0.88640000  0.94210000  0.22830000  1.0 -0.4327862982
O  O3  1  0.51840000  0.59060000  0.74580000  1.0 -0.4516004372
O  O4  1  0.71380000  0.65810000  0.77170000  1.0 -0.4327862982
O  O5  1  0.77260000  0.51840000  0.92780000  1.0 -0.4516004372
O  O6  1  0.94210000  0.71380000  0.05570000  1.0 -0.4327862982
O  O7  1  0.59060000  0.84480000  0.07220000  1.0 -0.4516004372
O  O8  1  0.65810000  0.88640000  0.94430000  1.0 -0.4327862982
O  O9  1  0.15520000  0.22740000  0.74580000  1.0 -0.4516004372
O  O10  1  0.11360000  0.05790000  0.77170000  1.0 -0.4327862982
O  O11  1  0.48160000  0.40940000  0.25420000  1.0 -0.4516004372
O  O12  1  0.28620000  0.34190000  0.22830000  1.0 -0.4327862982
O  O13  1  0.22740000  0.48160000  0.07220000  1.0 -0.4516004372
O  O14  1  0.05790000  0.28620000  0.94430000  1.0 -0.4327862982
O  O15  1  0.40940000  0.15520000  0.92780000  1.0 -0.4516004372
O  O16  1  0.34190000  0.11360000  0.05570000  1.0 -0.4327862982
