# DDEC6 charges by PACMAN v1.1 (https://github.com/mtap-research/PACMAN-charge/)
data_WOXVEN_ASR_pacman
_symmetry_space_group_name_H-M   'P 1'
_cell_length_a   13.41280000
_cell_length_b   13.41280000
_cell_length_c   13.41280000
_cell_angle_alpha   123.44100000
_cell_angle_beta   123.44100000
_cell_angle_gamma   84.13640000
_symmetry_Int_Tables_number   1
_chemical_formula_structural   Ce2H96C60N3(ClO2)8
_chemical_formula_sum   'Ce2 H96 C60 N3 Cl8 O16'
_cell_volume   1608.29853759
_cell_formula_units_Z   1
loop_
 _symmetry_equiv_pos_site_id
 _symmetry_equiv_pos_as_xyz
  1  'x, y, z'
loop_
 _atom_site_type_symbol
 _atom_site_label
 _atom_site_symmetry_multiplicity
 _atom_site_fract_x
 _atom_site_fract_y
 _atom_site_fract_z
 _atom_site_occupancy
 _atom_site_charge
Ce  Ce1  1  0.77349000  0.77349000  0.00000000  1.0 1.7501113024
Ce  Ce2  1  0.22651000  0.22651000  0.00000000  1.0 1.7501113024
H  H1  1  0.41863000  0.21464000  0.69019000  1.0 0.0146452505
H  H2  1  0.54071000  0.32987000  0.80414000  1.0 0.059193076
H  H3  1  0.40726000  0.33940000  0.70036000  1.0 0.059193076
H  H4  1  0.34051000  0.34910000  0.84011000  1.0 0.059193076
H  H5  1  0.46299000  0.31828000  0.93197000  1.0 0.059193076
H  H6  1  0.52445000  0.72844000  0.30981000  1.0 0.0152413976
H  H7  1  0.52573000  0.73657000  0.19586000  1.0 0.059193076
H  H8  1  0.63904000  0.70690000  0.29964000  1.0 0.059193076
H  H9  1  0.50899000  0.50040000  0.15989000  1.0 0.059193076
H  H10  1  0.38631000  0.53102000  0.06803000  1.0 0.059193076
H  H11  1  0.21464000  0.52445000  0.79601000  1.0 0.0146452505
H  H12  1  0.32987000  0.52573000  0.78916000  1.0 0.059193076
H  H13  1  0.33940000  0.63904000  0.93214000  1.0 0.059193076
H  H14  1  0.34910000  0.50899000  0.00859000  1.0 0.059193076
H  H15  1  0.31828000  0.38631000  0.85529000  1.0 0.059193076
H  H16  1  0.72844000  0.41863000  0.20399000  1.0 0.0152413976
H  H17  1  0.73657000  0.54071000  0.21084000  1.0 0.059193076
H  H18  1  0.70690000  0.40726000  0.06786000  1.0 0.059193076
H  H19  1  0.50040000  0.34051000  0.99141000  1.0 0.059193076
H  H20  1  0.53102000  0.46299000  0.14471000  1.0 0.059193076
H  H21  1  0.58137000  0.78536000  0.30981000  1.0 0.0152413976
H  H22  1  0.45929000  0.67013000  0.19586000  1.0 0.059193076
H  H23  1  0.59274000  0.66060000  0.29964000  1.0 0.059193076
H  H24  1  0.65949000  0.65090000  0.15989000  1.0 0.059193076
H  H25  1  0.53701000  0.68172000  0.06803000  1.0 0.059193076
H  H26  1  0.47555000  0.27156000  0.69019000  1.0 0.0146452505
H  H27  1  0.47427000  0.26343000  0.80414000  1.0 0.059193076
H  H28  1  0.36096000  0.29310000  0.70036000  1.0 0.059193076
H  H29  1  0.49101000  0.49960000  0.84011000  1.0 0.059193076
H  H30  1  0.61369000  0.46898000  0.93197000  1.0 0.059193076
H  H31  1  0.78536000  0.47555000  0.20399000  1.0 0.0152413976
H  H32  1  0.67013000  0.47427000  0.21084000  1.0 0.059193076
H  H33  1  0.66060000  0.36096000  0.06786000  1.0 0.059193076
H  H34  1  0.65090000  0.49101000  0.99141000  1.0 0.059193076
H  H35  1  0.68172000  0.61369000  0.14471000  1.0 0.059193076
H  H36  1  0.27156000  0.58137000  0.79601000  1.0 0.0146452505
H  H37  1  0.26343000  0.45929000  0.78916000  1.0 0.059193076
H  H38  1  0.29310000  0.59274000  0.93214000  1.0 0.059193076
H  H39  1  0.49960000  0.65949000  0.00859000  1.0 0.059193076
H  H40  1  0.46898000  0.53701000  0.85529000  1.0 0.059193076
H  H41  1  0.33760000  0.92475000  0.49741000  1.0 0.113015926
H  H42  1  0.27189000  0.98524000  0.57867000  1.0 0.0894485495
H  H43  1  0.20392000  0.94483000  0.41411000  1.0 0.1216427256
H  H44  1  0.19597000  0.76744000  0.33633000  1.0 0.0834383093
H  H45  1  0.12404000  0.82627000  0.40745000  1.0 0.113015926
H  H46  1  0.19397000  0.91042000  0.56775000  1.0 0.0894485495
H  H47  1  0.34127000  0.93947000  0.65712000  1.0 0.059193076
H  H48  1  0.42734000  0.84019000  0.50259000  1.0 0.113015926
H  H49  1  0.40657000  0.69322000  0.42133000  1.0 0.0894485495
H  H50  1  0.53072000  0.78981000  0.58589000  1.0 0.1216427256
H  H51  1  0.43111000  0.85964000  0.66367000  1.0 0.0834383093
H  H52  1  0.41882000  0.71659000  0.59255000  1.0 0.113015926
H  H53  1  0.34267000  0.62622000  0.43225000  1.0 0.0894485495
H  H54  1  0.28235000  0.68415000  0.34288000  1.0 0.059193076
H  H55  1  0.15981000  0.66240000  0.58715000  1.0 0.113015926
H  H56  1  0.30678000  0.72811000  0.71335000  1.0 0.0894485495
H  H57  1  0.21019000  0.79608000  0.74091000  1.0 0.1216427256
H  H58  1  0.14036000  0.80403000  0.57147000  1.0 0.0834383093
H  H59  1  0.28341000  0.87596000  0.70223000  1.0 0.113015926
H  H60  1  0.37378000  0.80603000  0.71645000  1.0 0.0894485495
H  H61  1  0.31585000  0.65873000  0.59820000  1.0 0.059193076
H  H62  1  0.07525000  0.57266000  0.41285000  1.0 0.113015926
H  H63  1  0.01476000  0.59343000  0.28665000  1.0 0.0894485495
H  H64  1  0.05517000  0.46928000  0.25909000  1.0 0.1216427256
H  H65  1  0.23256000  0.56889000  0.42853000  1.0 0.0834383093
H  H66  1  0.17373000  0.58118000  0.29777000  1.0 0.113015926
H  H67  1  0.08958000  0.65733000  0.28355000  1.0 0.0894485495
H  H68  1  0.06053000  0.71765000  0.40180000  1.0 0.059193076
H  H69  1  0.84019000  0.33760000  0.41285000  1.0 0.113015926
H  H70  1  0.69322000  0.27189000  0.28665000  1.0 0.0834383093
H  H71  1  0.78981000  0.20392000  0.25909000  1.0 0.1216427256
H  H72  1  0.85964000  0.19597000  0.42853000  1.0 0.0834383093
H  H73  1  0.71659000  0.12404000  0.29777000  1.0 0.113015926
H  H74  1  0.62622000  0.19397000  0.28355000  1.0 0.0894485495
H  H75  1  0.68415000  0.34127000  0.40180000  1.0 0.059193076
H  H76  1  0.92475000  0.42734000  0.58715000  1.0 0.113015926
H  H77  1  0.98524000  0.40657000  0.71335000  1.0 0.0894485495
H  H78  1  0.94483000  0.53072000  0.74091000  1.0 0.1216427256
H  H79  1  0.76744000  0.43111000  0.57147000  1.0 0.0834383093
H  H80  1  0.82627000  0.41882000  0.70223000  1.0 0.113015926
H  H81  1  0.91042000  0.34267000  0.71645000  1.0 0.0894485495
H  H82  1  0.93947000  0.28235000  0.59820000  1.0 0.059193076
H  H83  1  0.66240000  0.07525000  0.50259000  1.0 0.113015926
H  H84  1  0.72811000  0.01476000  0.42133000  1.0 0.0894485495
H  H85  1  0.79608000  0.05517000  0.58589000  1.0 0.1216427256
H  H86  1  0.80403000  0.23256000  0.66367000  1.0 0.0834383093
H  H87  1  0.87596000  0.17373000  0.59255000  1.0 0.113015926
H  H88  1  0.80603000  0.08958000  0.43225000  1.0 0.0894485495
H  H89  1  0.65873000  0.06053000  0.34288000  1.0 0.059193076
H  H90  1  0.57266000  0.15981000  0.49741000  1.0 0.113015926
H  H91  1  0.59343000  0.30678000  0.57867000  1.0 0.0894485495
H  H92  1  0.46928000  0.21019000  0.41411000  1.0 0.1216427256
H  H93  1  0.56889000  0.14036000  0.33633000  1.0 0.0834383093
H  H94  1  0.58118000  0.28341000  0.40745000  1.0 0.113015926
H  H95  1  0.65733000  0.37378000  0.56775000  1.0 0.0894485495
H  H96  1  0.71765000  0.31585000  0.65712000  1.0 0.059193076
C  C1  1  0.43060000  0.36170000  0.88470000  1.0 -0.0762160513
C  C2  1  0.47700000  0.54590000  0.11530000  1.0 -0.0762160513
C  C3  1  0.36170000  0.47700000  0.93110000  1.0 -0.0762160513
C  C4  1  0.54590000  0.43060000  0.06890000  1.0 -0.0762160513
C  C5  1  0.56940000  0.63830000  0.11530000  1.0 -0.0762160513
C  C6  1  0.52300000  0.45410000  0.88470000  1.0 -0.0762160513
C  C7  1  0.63830000  0.52300000  0.06890000  1.0 -0.0762160513
C  C8  1  0.45410000  0.56940000  0.93110000  1.0 -0.0762160513
C  C9  1  0.45140000  0.30590000  0.75730000  1.0 -0.2725930828
C  C10  1  0.54860000  0.69410000  0.24270000  1.0 -0.2725930828
C  C11  1  0.30590000  0.54860000  0.85450000  1.0 -0.2725930828
C  C12  1  0.69410000  0.45140000  0.14550000  1.0 -0.2725930828
C  C13  1  0.08740000  0.11800000  0.64400000  1.0 0.1741139088
C  C14  1  0.95560000  0.99530000  0.37070000  1.0 0.2490664478
C  C15  1  0.04400000  0.10330000  0.51350000  1.0 -0.1706280781
C  C16  1  0.47400000  0.44340000  0.35600000  1.0 0.1741139088
C  C17  1  0.62460000  0.58490000  0.62930000  1.0 0.2490664478
C  C18  1  0.58980000  0.53050000  0.48650000  1.0 -0.1706280781
C  C19  1  0.11800000  0.47400000  0.03060000  1.0 0.1757494341
C  C20  1  0.99530000  0.62460000  0.03970000  1.0 0.2490664478
C  C21  1  0.10330000  0.58980000  0.05930000  1.0 -0.175361285
C  C22  1  0.44340000  0.08740000  0.96940000  1.0 0.1741139088
C  C23  1  0.58490000  0.95560000  0.96030000  1.0 0.2490664478
C  C24  1  0.53050000  0.04400000  0.94070000  1.0 -0.1706280781
C  C25  1  0.91260000  0.88200000  0.35600000  1.0 0.1757494341
C  C26  1  0.04440000  0.00470000  0.62930000  1.0 0.2490664478
C  C27  1  0.95600000  0.89670000  0.48650000  1.0 -0.1706280781
C  C28  1  0.52600000  0.55660000  0.64400000  1.0 0.1741139088
C  C29  1  0.37540000  0.41510000  0.37070000  1.0 0.2490664478
C  C30  1  0.41020000  0.46950000  0.51350000  1.0 -0.1706280781
C  C31  1  0.88200000  0.52600000  0.96940000  1.0 0.1757494341
C  C32  1  0.00470000  0.37540000  0.96030000  1.0 0.2490664478
C  C33  1  0.89670000  0.41020000  0.94070000  1.0 -0.1706280781
C  C34  1  0.55660000  0.91260000  0.03060000  1.0 0.1757494341
C  C35  1  0.41510000  0.04440000  0.03970000  1.0 0.2490664478
C  C36  1  0.46950000  0.95600000  0.05930000  1.0 -0.1706280781
C  C37  1  0.25760000  0.92390000  0.48290000  1.0 -0.191977283
C  C38  1  0.20900000  0.82400000  0.43300000  1.0 -0.0720886755
C  C39  1  0.26200000  0.88800000  0.55600000  1.0 -0.0762160513
C  C40  1  0.44100000  0.77470000  0.51710000  1.0 -0.191977283
C  C41  1  0.39100000  0.77600000  0.56700000  1.0 -0.0720886755
C  C42  1  0.33200000  0.70600000  0.44400000  1.0 -0.0762160513
C  C43  1  0.22530000  0.74240000  0.66630000  1.0 -0.191977283
C  C44  1  0.22400000  0.79100000  0.61500000  1.0 -0.0720886755
C  C45  1  0.29400000  0.73800000  0.62600000  1.0 -0.0762160513
C  C46  1  0.07610000  0.55900000  0.33370000  1.0 -0.191977283
C  C47  1  0.17600000  0.60900000  0.38500000  1.0 -0.0720886755
C  C48  1  0.11200000  0.66800000  0.37400000  1.0 -0.0762160513
C  C49  1  0.77470000  0.25760000  0.33370000  1.0 -0.191977283
C  C50  1  0.77600000  0.20900000  0.38500000  1.0 -0.0720886755
C  C51  1  0.70600000  0.26200000  0.37400000  1.0 -0.0762160513
C  C52  1  0.92390000  0.44100000  0.66630000  1.0 -0.191977283
C  C53  1  0.82400000  0.39100000  0.61500000  1.0 -0.0720886755
C  C54  1  0.88800000  0.33200000  0.62600000  1.0 -0.0762160513
C  C55  1  0.74240000  0.07610000  0.51710000  1.0 -0.191977283
C  C56  1  0.79100000  0.17600000  0.56700000  1.0 -0.0720886755
C  C57  1  0.73800000  0.11200000  0.44400000  1.0 -0.0762160513
C  C58  1  0.55900000  0.22530000  0.48290000  1.0 -0.191977283
C  C59  1  0.60900000  0.22400000  0.43300000  1.0 -0.0720886755
C  C60  1  0.66800000  0.29400000  0.55600000  1.0 -0.0762160513
N  N1  1  0.50000000  0.50000000  0.00000000  1.0 0.1484953072
N  N2  1  0.25000000  0.75000000  0.50000000  1.0 0.1854745504
N  N3  1  0.75000000  0.25000000  0.50000000  1.0 0.1854745504
Cl  Cl1  1  0.09926000  0.22652000  0.52868000  1.0 -0.1706280781
Cl  Cl2  1  0.69784000  0.57058000  0.47132000  1.0 -0.1706280781
Cl  Cl3  1  0.22652000  0.69784000  0.12726000  1.0 -0.1706280781
Cl  Cl4  1  0.57058000  0.09926000  0.87274000  1.0 -0.1706280781
Cl  Cl5  1  0.90074000  0.77348000  0.47132000  1.0 -0.1706280781
Cl  Cl6  1  0.30216000  0.42942000  0.52868000  1.0 -0.1706280781
Cl  Cl7  1  0.77348000  0.30216000  0.87274000  1.0 -0.1706280781
Cl  Cl8  1  0.42942000  0.90074000  0.12726000  1.0 -0.1706280781
O  O1  1  0.90840000  0.98010000  0.25230000  1.0 -0.4744108338
O  O2  1  0.15830000  0.21450000  0.77340000  1.0 -0.4775706623
O  O3  1  0.72780000  0.65610000  0.74770000  1.0 -0.4744108338
O  O4  1  0.44110000  0.38490000  0.22660000  1.0 -0.4775706623
O  O5  1  0.98010000  0.72780000  0.07170000  1.0 -0.4744108338
O  O6  1  0.21450000  0.44110000  0.05620000  1.0 -0.4775706623
O  O7  1  0.65610000  0.90840000  0.92830000  1.0 -0.4744108338
O  O8  1  0.38490000  0.15830000  0.94380000  1.0 -0.4775706623
O  O9  1  0.09160000  0.01990000  0.74770000  1.0 -0.4744108338
O  O10  1  0.84170000  0.78550000  0.22660000  1.0 -0.4775706623
O  O11  1  0.27220000  0.34390000  0.25230000  1.0 -0.4744108338
O  O12  1  0.55890000  0.61510000  0.77340000  1.0 -0.4775706623
O  O13  1  0.01990000  0.27220000  0.92830000  1.0 -0.4744108338
O  O14  1  0.78550000  0.55890000  0.94380000  1.0 -0.4775706623
O  O15  1  0.34390000  0.09160000  0.07170000  1.0 -0.4744108338
O  O16  1  0.61510000  0.84170000  0.05620000  1.0 -0.4775706623
