# DDEC6 charges by PACMAN v1.1 (https://github.com/mtap-research/PACMAN-charge/)
data_WOYHUP_ASR_pacman
_symmetry_space_group_name_H-M   'P 1'
_cell_length_a   17.73490000
_cell_length_b   17.73490000
_cell_length_c   28.17320000
_cell_angle_alpha   90.00000000
_cell_angle_beta   90.00000000
_cell_angle_gamma   90.00000000
_symmetry_Int_Tables_number   1
_chemical_formula_structural   Zn2H9C19(NO4)2
_chemical_formula_sum   'Zn16 H72 C152 N16 O64'
_cell_volume   8861.22300491
_cell_formula_units_Z   8
loop_
 _symmetry_equiv_pos_site_id
 _symmetry_equiv_pos_as_xyz
  1  'x, y, z'
loop_
 _atom_site_type_symbol
 _atom_site_label
 _atom_site_symmetry_multiplicity
 _atom_site_fract_x
 _atom_site_fract_y
 _atom_site_fract_z
 _atom_site_occupancy
 _atom_site_charge
Zn  Zn1  1  0.79554000  0.79554000  0.71497000  1.0 0.9477639131
Zn  Zn2  1  0.70446000  0.29554000  0.21497000  1.0 0.9477639131
Zn  Zn3  1  0.20446000  0.20446000  0.71497000  1.0 0.9477639131
Zn  Zn4  1  0.29554000  0.70446000  0.21497000  1.0 0.9477639131
Zn  Zn5  1  0.79554000  0.20446000  0.28503000  1.0 0.9477639131
Zn  Zn6  1  0.20446000  0.79554000  0.28503000  1.0 0.9477639131
Zn  Zn7  1  0.29554000  0.29554000  0.78503000  1.0 0.9477639131
Zn  Zn8  1  0.70446000  0.70446000  0.78503000  1.0 0.9477639131
Zn  Zn9  1  0.50000000  0.91545000  0.00000000  1.0 0.9477639131
Zn  Zn10  1  0.58455000  0.00000000  0.50000000  1.0 0.9477639131
Zn  Zn11  1  0.50000000  0.08455000  0.00000000  1.0 0.9477639131
Zn  Zn12  1  0.41545000  0.00000000  0.50000000  1.0 0.9477639131
Zn  Zn13  1  0.00000000  0.58455000  0.50000000  1.0 0.9477639131
Zn  Zn14  1  0.91545000  0.50000000  0.00000000  1.0 0.9477639131
Zn  Zn15  1  0.00000000  0.41545000  0.50000000  1.0 0.9477639131
Zn  Zn16  1  0.08455000  0.50000000  0.00000000  1.0 0.9477639131
H  H1  1  0.63760000  0.89180000  0.87600000  1.0 0.135161408
H  H2  1  0.60820000  0.13760000  0.37600000  1.0 0.135161408
H  H3  1  0.36240000  0.10820000  0.87600000  1.0 0.135161408
H  H4  1  0.39180000  0.86240000  0.37600000  1.0 0.135161408
H  H5  1  0.63760000  0.10820000  0.12400000  1.0 0.135161408
H  H6  1  0.36240000  0.89180000  0.12400000  1.0 0.135161408
H  H7  1  0.39180000  0.13760000  0.62400000  1.0 0.135161408
H  H8  1  0.60820000  0.86240000  0.62400000  1.0 0.135161408
H  H9  1  0.86240000  0.60820000  0.62400000  1.0 0.135161408
H  H10  1  0.89180000  0.36240000  0.12400000  1.0 0.135161408
H  H11  1  0.13760000  0.39180000  0.62400000  1.0 0.135161408
H  H12  1  0.10820000  0.63760000  0.12400000  1.0 0.135161408
H  H13  1  0.86240000  0.39180000  0.37600000  1.0 0.135161408
H  H14  1  0.13760000  0.60820000  0.37600000  1.0 0.135161408
H  H15  1  0.10820000  0.36240000  0.87600000  1.0 0.135161408
H  H16  1  0.89180000  0.63760000  0.87600000  1.0 0.135161408
H  H17  1  0.68830000  0.11090000  0.90120000  1.0 0.1308185249
H  H18  1  0.38910000  0.18830000  0.40120000  1.0 0.1308185249
H  H19  1  0.31170000  0.88910000  0.90120000  1.0 0.1308185249
H  H20  1  0.61090000  0.81170000  0.40120000  1.0 0.1308185249
H  H21  1  0.68830000  0.88910000  0.09880000  1.0 0.1308185249
H  H22  1  0.31170000  0.11090000  0.09880000  1.0 0.1308185249
H  H23  1  0.61090000  0.18830000  0.59880000  1.0 0.1308185249
H  H24  1  0.38910000  0.81170000  0.59880000  1.0 0.1308185249
H  H25  1  0.81170000  0.38910000  0.59880000  1.0 0.1308185249
H  H26  1  0.11090000  0.31170000  0.09880000  1.0 0.1308185249
H  H27  1  0.18830000  0.61090000  0.59880000  1.0 0.1308185249
H  H28  1  0.88910000  0.68830000  0.09880000  1.0 0.1308185249
H  H29  1  0.81170000  0.61090000  0.40120000  1.0 0.1308185249
H  H30  1  0.18830000  0.38910000  0.40120000  1.0 0.1308185249
H  H31  1  0.88910000  0.31170000  0.90120000  1.0 0.1308185249
H  H32  1  0.11090000  0.68830000  0.90120000  1.0 0.1308185249
H  H33  1  0.86200000  0.13800000  0.88200000  1.0 0.1308185249
H  H34  1  0.36200000  0.36200000  0.38200000  1.0 0.1308185249
H  H35  1  0.13800000  0.86200000  0.88200000  1.0 0.1308185249
H  H36  1  0.63800000  0.63800000  0.38200000  1.0 0.1308185249
H  H37  1  0.86200000  0.86200000  0.11800000  1.0 0.1308185249
H  H38  1  0.13800000  0.13800000  0.11800000  1.0 0.1308185249
H  H39  1  0.63800000  0.36200000  0.61800000  1.0 0.1308185249
H  H40  1  0.36200000  0.63800000  0.61800000  1.0 0.1308185249
H  H41  1  0.78600000  0.00080000  0.79230000  1.0 0.1308185249
H  H42  1  0.49920000  0.28600000  0.29230000  1.0 0.1308185249
H  H43  1  0.21400000  0.99920000  0.79230000  1.0 0.1308185249
H  H44  1  0.50080000  0.71400000  0.29230000  1.0 0.1308185249
H  H45  1  0.78600000  0.99920000  0.20770000  1.0 0.1308185249
H  H46  1  0.21400000  0.00080000  0.20770000  1.0 0.1308185249
H  H47  1  0.50080000  0.28600000  0.70770000  1.0 0.1308185249
H  H48  1  0.49920000  0.71400000  0.70770000  1.0 0.1308185249
H  H49  1  0.71400000  0.49920000  0.70770000  1.0 0.1308185249
H  H50  1  0.00080000  0.21400000  0.20770000  1.0 0.1308185249
H  H51  1  0.28600000  0.50080000  0.70770000  1.0 0.1308185249
H  H52  1  0.99920000  0.78600000  0.20770000  1.0 0.1308185249
H  H53  1  0.71400000  0.50080000  0.29230000  1.0 0.1308185249
H  H54  1  0.28600000  0.49920000  0.29230000  1.0 0.1308185249
H  H55  1  0.99920000  0.21400000  0.79230000  1.0 0.1308185249
H  H56  1  0.00080000  0.78600000  0.79230000  1.0 0.1308185249
H  H57  1  0.75390000  0.14930000  0.76330000  1.0 0.1308185249
H  H58  1  0.35070000  0.25390000  0.26330000  1.0 0.1308185249
H  H59  1  0.24610000  0.85070000  0.76330000  1.0 0.1308185249
H  H60  1  0.64930000  0.74610000  0.26330000  1.0 0.1308185249
H  H61  1  0.75390000  0.85070000  0.23670000  1.0 0.1308185249
H  H62  1  0.24610000  0.14930000  0.23670000  1.0 0.1308185249
H  H63  1  0.64930000  0.25390000  0.73670000  1.0 0.1308185249
H  H64  1  0.35070000  0.74610000  0.73670000  1.0 0.1308185249
H  H65  1  0.74610000  0.35070000  0.73670000  1.0 0.1308185249
H  H66  1  0.14930000  0.24610000  0.23670000  1.0 0.1308185249
H  H67  1  0.25390000  0.64930000  0.73670000  1.0 0.1308185249
H  H68  1  0.85070000  0.75390000  0.23670000  1.0 0.1308185249
H  H69  1  0.74610000  0.64930000  0.26330000  1.0 0.1308185249
H  H70  1  0.25390000  0.35070000  0.26330000  1.0 0.1308185249
H  H71  1  0.85070000  0.24610000  0.76330000  1.0 0.1308185249
H  H72  1  0.14930000  0.75390000  0.76330000  1.0 0.1308185249
C  C1  1  0.71360000  0.93510000  0.82981000  1.0 -0.0283155823
C  C2  1  0.56490000  0.21360000  0.32981000  1.0 -0.0283155823
C  C3  1  0.28640000  0.06490000  0.82981000  1.0 -0.0283155823
C  C4  1  0.43510000  0.78640000  0.32981000  1.0 -0.0283155823
C  C5  1  0.71360000  0.06490000  0.17019000  1.0 -0.0283155823
C  C6  1  0.28640000  0.93510000  0.17019000  1.0 -0.0283155823
C  C7  1  0.43510000  0.21360000  0.67019000  1.0 -0.0283155823
C  C8  1  0.56490000  0.78640000  0.67019000  1.0 -0.0283155823
C  C9  1  0.78640000  0.56490000  0.67019000  1.0 -0.0283155823
C  C10  1  0.93510000  0.28640000  0.17019000  1.0 -0.0283155823
C  C11  1  0.21360000  0.43510000  0.67019000  1.0 -0.0283155823
C  C12  1  0.06490000  0.71360000  0.17019000  1.0 -0.0283155823
C  C13  1  0.78640000  0.43510000  0.32981000  1.0 -0.0283155823
C  C14  1  0.21360000  0.56490000  0.32981000  1.0 -0.0283155823
C  C15  1  0.06490000  0.28640000  0.82981000  1.0 -0.0283155823
C  C16  1  0.93510000  0.71360000  0.82981000  1.0 -0.0283155823
C  C17  1  0.66480000  0.93620000  0.86809000  1.0 -0.1020758126
C  C18  1  0.56380000  0.16480000  0.36809000  1.0 -0.1020758126
C  C19  1  0.33520000  0.06380000  0.86809000  1.0 -0.1020758126
C  C20  1  0.43620000  0.83520000  0.36809000  1.0 -0.1020758126
C  C21  1  0.66480000  0.06380000  0.13191000  1.0 -0.1020758126
C  C22  1  0.33520000  0.93620000  0.13191000  1.0 -0.1020758126
C  C23  1  0.43620000  0.16480000  0.63191000  1.0 -0.1020758126
C  C24  1  0.56380000  0.83520000  0.63191000  1.0 -0.1020758126
C  C25  1  0.83520000  0.56380000  0.63191000  1.0 -0.1020758126
C  C26  1  0.93620000  0.33520000  0.13191000  1.0 -0.1020758126
C  C27  1  0.16480000  0.43620000  0.63191000  1.0 -0.1020758126
C  C28  1  0.06380000  0.66480000  0.13191000  1.0 -0.1020758126
C  C29  1  0.83520000  0.43620000  0.36809000  1.0 -0.1020758126
C  C30  1  0.16480000  0.56380000  0.36809000  1.0 -0.1020758126
C  C31  1  0.06380000  0.33520000  0.86809000  1.0 -0.1020758126
C  C32  1  0.93620000  0.66480000  0.86809000  1.0 -0.1020758126
C  C33  1  0.69450000  0.06600000  0.88324000  1.0 -0.1918985041
C  C34  1  0.43400000  0.19450000  0.38324000  1.0 -0.1918985041
C  C35  1  0.30550000  0.93400000  0.88324000  1.0 -0.1918985041
C  C36  1  0.56600000  0.80550000  0.38324000  1.0 -0.1918985041
C  C37  1  0.69450000  0.93400000  0.11676000  1.0 -0.1918985041
C  C38  1  0.30550000  0.06600000  0.11676000  1.0 -0.1918985041
C  C39  1  0.56600000  0.19450000  0.61676000  1.0 -0.1918985041
C  C40  1  0.43400000  0.80550000  0.61676000  1.0 -0.1918985041
C  C41  1  0.80550000  0.43400000  0.61676000  1.0 -0.1918985041
C  C42  1  0.06600000  0.30550000  0.11676000  1.0 -0.1918985041
C  C43  1  0.19450000  0.56600000  0.61676000  1.0 -0.1918985041
C  C44  1  0.93400000  0.69450000  0.11676000  1.0 -0.1918985041
C  C45  1  0.80550000  0.56600000  0.38324000  1.0 -0.1918985041
C  C46  1  0.19450000  0.43400000  0.38324000  1.0 -0.1918985041
C  C47  1  0.93400000  0.30550000  0.88324000  1.0 -0.1918985041
C  C48  1  0.06600000  0.69450000  0.88324000  1.0 -0.1918985041
C  C49  1  0.84180000  0.15820000  0.85350000  1.0 0.008989191
C  C50  1  0.34180000  0.34180000  0.35350000  1.0 0.008989191
C  C51  1  0.15820000  0.84180000  0.85350000  1.0 0.008989191
C  C52  1  0.65820000  0.65820000  0.35350000  1.0 0.008989191
C  C53  1  0.84180000  0.84180000  0.14650000  1.0 0.008989191
C  C54  1  0.15820000  0.15820000  0.14650000  1.0 0.008989191
C  C55  1  0.65820000  0.34180000  0.64650000  1.0 0.008989191
C  C56  1  0.34180000  0.65820000  0.64650000  1.0 0.008989191
C  C57  1  0.74180000  0.06380000  0.84561000  1.0 0.1170882394
C  C58  1  0.43620000  0.24180000  0.34561000  1.0 0.1170882394
C  C59  1  0.25820000  0.93620000  0.84561000  1.0 0.1170882394
C  C60  1  0.56380000  0.75820000  0.34561000  1.0 0.1170882394
C  C61  1  0.74180000  0.93620000  0.15439000  1.0 0.1170882394
C  C62  1  0.25820000  0.06380000  0.15439000  1.0 0.1170882394
C  C63  1  0.56380000  0.24180000  0.65439000  1.0 0.1170882394
C  C64  1  0.43620000  0.75820000  0.65439000  1.0 0.1170882394
C  C65  1  0.75820000  0.43620000  0.65439000  1.0 0.1170882394
C  C66  1  0.06380000  0.25820000  0.15439000  1.0 0.1170882394
C  C67  1  0.24180000  0.56380000  0.65439000  1.0 0.1170882394
C  C68  1  0.93620000  0.74180000  0.15439000  1.0 0.1170882394
C  C69  1  0.75820000  0.56380000  0.34561000  1.0 0.1170882394
C  C70  1  0.24180000  0.43620000  0.34561000  1.0 0.1170882394
C  C71  1  0.93620000  0.25820000  0.84561000  1.0 0.1170882394
C  C72  1  0.06380000  0.74180000  0.84561000  1.0 0.1170882394
C  C73  1  0.75230000  0.00000000  0.81850000  1.0 -0.1918985041
C  C74  1  0.50000000  0.25230000  0.31850000  1.0 -0.1918985041
C  C75  1  0.24770000  0.00000000  0.81850000  1.0 -0.1918985041
C  C76  1  0.50000000  0.74770000  0.31850000  1.0 -0.1918985041
C  C77  1  0.75230000  0.00000000  0.18150000  1.0 -0.1918985041
C  C78  1  0.24770000  0.00000000  0.18150000  1.0 -0.1918985041
C  C79  1  0.50000000  0.25230000  0.68150000  1.0 -0.1918985041
C  C80  1  0.50000000  0.74770000  0.68150000  1.0 -0.1918985041
C  C81  1  0.74770000  0.50000000  0.68150000  1.0 -0.1918985041
C  C82  1  0.00000000  0.24770000  0.18150000  1.0 -0.1918985041
C  C83  1  0.25230000  0.50000000  0.68150000  1.0 -0.1918985041
C  C84  1  0.00000000  0.75230000  0.18150000  1.0 -0.1918985041
C  C85  1  0.74770000  0.50000000  0.31850000  1.0 -0.1918985041
C  C86  1  0.25230000  0.50000000  0.31850000  1.0 -0.1918985041
C  C87  1  0.00000000  0.24770000  0.81850000  1.0 -0.1918985041
C  C88  1  0.00000000  0.75230000  0.81850000  1.0 -0.1918985041
C  C89  1  0.78550000  0.16240000  0.78920000  1.0 -0.1127037688
C  C90  1  0.33760000  0.28550000  0.28920000  1.0 -0.1127037688
C  C91  1  0.21450000  0.83760000  0.78920000  1.0 -0.1127037688
C  C92  1  0.66240000  0.71450000  0.28920000  1.0 -0.1127037688
C  C93  1  0.78550000  0.83760000  0.21080000  1.0 -0.1127037688
C  C94  1  0.21450000  0.16240000  0.21080000  1.0 -0.1127037688
C  C95  1  0.66240000  0.28550000  0.71080000  1.0 -0.1127037688
C  C96  1  0.33760000  0.71450000  0.71080000  1.0 -0.1127037688
C  C97  1  0.71450000  0.33760000  0.71080000  1.0 -0.1127037688
C  C98  1  0.16240000  0.21450000  0.21080000  1.0 -0.1127037688
C  C99  1  0.28550000  0.66240000  0.71080000  1.0 -0.1127037688
C  C100  1  0.83760000  0.78550000  0.21080000  1.0 -0.1127037688
C  C101  1  0.71450000  0.66240000  0.28920000  1.0 -0.1127037688
C  C102  1  0.28550000  0.33760000  0.28920000  1.0 -0.1127037688
C  C103  1  0.83760000  0.21450000  0.78920000  1.0 -0.1127037688
C  C104  1  0.16240000  0.78550000  0.78920000  1.0 -0.1127037688
C  C105  1  0.60030000  0.00080000  0.93547000  1.0 0.5973775297
C  C106  1  0.49920000  0.10030000  0.43547000  1.0 0.5973775297
C  C107  1  0.39970000  0.99920000  0.93547000  1.0 0.5973775297
C  C108  1  0.50080000  0.89970000  0.43547000  1.0 0.5973775297
C  C109  1  0.60030000  0.99920000  0.06453000  1.0 0.5973775297
C  C110  1  0.39970000  0.00080000  0.06453000  1.0 0.5973775297
C  C111  1  0.50080000  0.10030000  0.56453000  1.0 0.5973775297
C  C112  1  0.49920000  0.89970000  0.56453000  1.0 0.5973775297
C  C113  1  0.89970000  0.49920000  0.56453000  1.0 0.5973775297
C  C114  1  0.00080000  0.39970000  0.06453000  1.0 0.5973775297
C  C115  1  0.10030000  0.50080000  0.56453000  1.0 0.5973775297
C  C116  1  0.99920000  0.60030000  0.06453000  1.0 0.5973775297
C  C117  1  0.89970000  0.50080000  0.43547000  1.0 0.5973775297
C  C118  1  0.10030000  0.49920000  0.43547000  1.0 0.5973775297
C  C119  1  0.99920000  0.39970000  0.93547000  1.0 0.5973775297
C  C120  1  0.00080000  0.60030000  0.93547000  1.0 0.5973775297
C  C121  1  0.72470000  0.86560000  0.80055000  1.0 0.5949718028
C  C122  1  0.63440000  0.22470000  0.30055000  1.0 0.5949718028
C  C123  1  0.27530000  0.13440000  0.80055000  1.0 0.5973775297
C  C124  1  0.36560000  0.77530000  0.30055000  1.0 0.5949718028
C  C125  1  0.72470000  0.13440000  0.19945000  1.0 0.5973775297
C  C126  1  0.27530000  0.86560000  0.19945000  1.0 0.5949718028
C  C127  1  0.36560000  0.22470000  0.69945000  1.0 0.5949718028
C  C128  1  0.63440000  0.77530000  0.69945000  1.0 0.5949718028
C  C129  1  0.77530000  0.63440000  0.69945000  1.0 0.5949718028
C  C130  1  0.86560000  0.27530000  0.19945000  1.0 0.5949718028
C  C131  1  0.22470000  0.36560000  0.69945000  1.0 0.5949718028
C  C132  1  0.13440000  0.72470000  0.19945000  1.0 0.5949718028
C  C133  1  0.77530000  0.36560000  0.30055000  1.0 0.5973775297
C  C134  1  0.22470000  0.63440000  0.30055000  1.0 0.5949718028
C  C135  1  0.13440000  0.27530000  0.80055000  1.0 0.5973775297
C  C136  1  0.86560000  0.72470000  0.80055000  1.0 0.5949718028
C  C137  1  0.65480000  0.00030000  0.89510000  1.0 -0.0283155823
C  C138  1  0.49970000  0.15480000  0.39510000  1.0 -0.0283155823
C  C139  1  0.34520000  0.99970000  0.89510000  1.0 -0.0283155823
C  C140  1  0.50030000  0.84520000  0.39510000  1.0 -0.0283155823
C  C141  1  0.65480000  0.99970000  0.10490000  1.0 -0.0283155823
C  C142  1  0.34520000  0.00030000  0.10490000  1.0 -0.0283155823
C  C143  1  0.50030000  0.15480000  0.60490000  1.0 -0.0283155823
C  C144  1  0.49970000  0.84520000  0.60490000  1.0 -0.0283155823
C  C145  1  0.84520000  0.49970000  0.60490000  1.0 -0.0283155823
C  C146  1  0.00030000  0.34520000  0.10490000  1.0 -0.0283155823
C  C147  1  0.15480000  0.50030000  0.60490000  1.0 -0.0283155823
C  C148  1  0.99970000  0.65480000  0.10490000  1.0 -0.0283155823
C  C149  1  0.84520000  0.50030000  0.39510000  1.0 -0.0283155823
C  C150  1  0.15480000  0.49970000  0.39510000  1.0 -0.0283155823
C  C151  1  0.99970000  0.34520000  0.89510000  1.0 -0.0283155823
C  C152  1  0.00030000  0.65480000  0.89510000  1.0 -0.0283155823
N  N1  1  0.78480000  0.13060000  0.83287000  1.0 0.0026725331
N  N2  1  0.36940000  0.28480000  0.33287000  1.0 0.0026725331
N  N3  1  0.21520000  0.86940000  0.83287000  1.0 0.0026725331
N  N4  1  0.63060000  0.71520000  0.33287000  1.0 0.0026725331
N  N5  1  0.78480000  0.86940000  0.16713000  1.0 0.0026725331
N  N6  1  0.21520000  0.13060000  0.16713000  1.0 0.0026725331
N  N7  1  0.63060000  0.28480000  0.66713000  1.0 0.0026725331
N  N8  1  0.36940000  0.71520000  0.66713000  1.0 0.0026725331
N  N9  1  0.71520000  0.36940000  0.66713000  1.0 0.0026725331
N  N10  1  0.13060000  0.21520000  0.16713000  1.0 0.0026725331
N  N11  1  0.28480000  0.63060000  0.66713000  1.0 0.0026725331
N  N12  1  0.86940000  0.78480000  0.16713000  1.0 0.0026725331
N  N13  1  0.71520000  0.63060000  0.33287000  1.0 0.0026725331
N  N14  1  0.28480000  0.36940000  0.33287000  1.0 0.0026725331
N  N15  1  0.86940000  0.21520000  0.83287000  1.0 0.0026725331
N  N16  1  0.13060000  0.78480000  0.83287000  1.0 0.0026725331
O  O1  1  0.76200000  0.87238000  0.76354000  1.0 -0.5475895492
O  O2  1  0.62762000  0.26200000  0.26354000  1.0 -0.5475895492
O  O3  1  0.23800000  0.12762000  0.76354000  1.0 -0.5475895492
O  O4  1  0.37238000  0.73800000  0.26354000  1.0 -0.5475895492
O  O5  1  0.76200000  0.12762000  0.23646000  1.0 -0.5475895492
O  O6  1  0.23800000  0.87238000  0.23646000  1.0 -0.5475895492
O  O7  1  0.37238000  0.26200000  0.73646000  1.0 -0.5475895492
O  O8  1  0.62762000  0.73800000  0.73646000  1.0 -0.5475895492
O  O9  1  0.73800000  0.62762000  0.73646000  1.0 -0.5475895492
O  O10  1  0.87238000  0.23800000  0.23646000  1.0 -0.5475895492
O  O11  1  0.26200000  0.37238000  0.73646000  1.0 -0.5475895492
O  O12  1  0.12762000  0.76200000  0.23646000  1.0 -0.5475895492
O  O13  1  0.73800000  0.37238000  0.26354000  1.0 -0.5475895492
O  O14  1  0.26200000  0.62762000  0.26354000  1.0 -0.5475895492
O  O15  1  0.12762000  0.23800000  0.76354000  1.0 -0.5475895492
O  O16  1  0.87238000  0.76200000  0.76354000  1.0 -0.5475895492
O  O17  1  0.69496000  0.80594000  0.81626000  1.0 -0.5475895492
O  O18  1  0.69406000  0.19496000  0.31626000  1.0 -0.5475895492
O  O19  1  0.30504000  0.19406000  0.81626000  1.0 -0.5475895492
O  O20  1  0.30594000  0.80504000  0.31626000  1.0 -0.5475895492
O  O21  1  0.69496000  0.19406000  0.18374000  1.0 -0.5475895492
O  O22  1  0.30504000  0.80594000  0.18374000  1.0 -0.5475895492
O  O23  1  0.30594000  0.19496000  0.68374000  1.0 -0.5475895492
O  O24  1  0.69406000  0.80504000  0.68374000  1.0 -0.5475895492
O  O25  1  0.80504000  0.69406000  0.68374000  1.0 -0.5475895492
O  O26  1  0.80594000  0.30504000  0.18374000  1.0 -0.5475895492
O  O27  1  0.19496000  0.30594000  0.68374000  1.0 -0.5475895492
O  O28  1  0.19406000  0.69496000  0.18374000  1.0 -0.5475895492
O  O29  1  0.80504000  0.30594000  0.31626000  1.0 -0.5475895492
O  O30  1  0.19496000  0.69406000  0.31626000  1.0 -0.5475895492
O  O31  1  0.19406000  0.30504000  0.81626000  1.0 -0.5475895492
O  O32  1  0.80594000  0.69496000  0.81626000  1.0 -0.5475895492
O  O33  1  0.56736000  0.93975000  0.94427000  1.0 -0.5475895492
O  O34  1  0.56025000  0.06736000  0.44427000  1.0 -0.5475895492
O  O35  1  0.43264000  0.06025000  0.94427000  1.0 -0.5475895492
O  O36  1  0.43975000  0.93264000  0.44427000  1.0 -0.5475895492
O  O37  1  0.56736000  0.06025000  0.05573000  1.0 -0.5475895492
O  O38  1  0.43264000  0.93975000  0.05573000  1.0 -0.5475895492
O  O39  1  0.43975000  0.06736000  0.55573000  1.0 -0.5475895492
O  O40  1  0.56025000  0.93264000  0.55573000  1.0 -0.5475895492
O  O41  1  0.93264000  0.56025000  0.55573000  1.0 -0.5475895492
O  O42  1  0.93975000  0.43264000  0.05573000  1.0 -0.5475895492
O  O43  1  0.06736000  0.43975000  0.55573000  1.0 -0.5475895492
O  O44  1  0.06025000  0.56736000  0.05573000  1.0 -0.5475895492
O  O45  1  0.93264000  0.43975000  0.44427000  1.0 -0.5475895492
O  O46  1  0.06736000  0.56025000  0.44427000  1.0 -0.5475895492
O  O47  1  0.06025000  0.43264000  0.94427000  1.0 -0.5475895492
O  O48  1  0.93975000  0.56736000  0.94427000  1.0 -0.5445995063
O  O49  1  0.58925000  0.06238000  0.95667000  1.0 -0.5602067665
O  O50  1  0.43762000  0.08925000  0.45667000  1.0 -0.5602067665
O  O51  1  0.41075000  0.93762000  0.95667000  1.0 -0.5602067665
O  O52  1  0.56238000  0.91075000  0.45667000  1.0 -0.5602067665
O  O53  1  0.58925000  0.93762000  0.04333000  1.0 -0.5602067665
O  O54  1  0.41075000  0.06238000  0.04333000  1.0 -0.5602067665
O  O55  1  0.56238000  0.08925000  0.54333000  1.0 -0.5602067665
O  O56  1  0.43762000  0.91075000  0.54333000  1.0 -0.5602067665
O  O57  1  0.91075000  0.43762000  0.54333000  1.0 -0.5602067665
O  O58  1  0.06238000  0.41075000  0.04333000  1.0 -0.5602067665
O  O59  1  0.08925000  0.56238000  0.54333000  1.0 -0.5602067665
O  O60  1  0.93762000  0.58925000  0.04333000  1.0 -0.5602067665
O  O61  1  0.91075000  0.56238000  0.45667000  1.0 -0.5602067665
O  O62  1  0.08925000  0.43762000  0.45667000  1.0 -0.5602067665
O  O63  1  0.93762000  0.41075000  0.95667000  1.0 -0.5602067665
O  O64  1  0.06238000  0.58925000  0.95667000  1.0 -0.5602067665
