# DDEC6 charges by PACMAN v1.1 (https://github.com/mtap-research/PACMAN-charge/)
data_WOYJIF_ASR_pacman
_symmetry_space_group_name_H-M   'P 1'
_cell_length_a   17.71790000
_cell_length_b   17.71790000
_cell_length_c   27.55660000
_cell_angle_alpha   90.00000000
_cell_angle_beta   90.00000000
_cell_angle_gamma   90.00000000
_symmetry_Int_Tables_number   1
_chemical_formula_structural   Cu2H9C19(NO4)2
_chemical_formula_sum   'Cu16 H72 C152 N16 O64'
_cell_volume   8650.67755857
_cell_formula_units_Z   8
loop_
 _symmetry_equiv_pos_site_id
 _symmetry_equiv_pos_as_xyz
  1  'x, y, z'
loop_
 _atom_site_type_symbol
 _atom_site_label
 _atom_site_symmetry_multiplicity
 _atom_site_fract_x
 _atom_site_fract_y
 _atom_site_fract_z
 _atom_site_occupancy
 _atom_site_charge
Cu  Cu1  1  0.28972000  0.28972000  0.28215000  1.0 0.842395608
Cu  Cu2  1  0.21028000  0.78972000  0.78215000  1.0 0.842395608
Cu  Cu3  1  0.71028000  0.71028000  0.28215000  1.0 0.842395608
Cu  Cu4  1  0.78972000  0.21028000  0.78215000  1.0 0.842395608
Cu  Cu5  1  0.28972000  0.71028000  0.71785000  1.0 0.842395608
Cu  Cu6  1  0.71028000  0.28972000  0.71785000  1.0 0.842395608
Cu  Cu7  1  0.78972000  0.78972000  0.21785000  1.0 0.842395608
Cu  Cu8  1  0.21028000  0.21028000  0.21785000  1.0 0.842395608
Cu  Cu9  1  0.50000000  0.07483000  0.50000000  1.0 0.842395608
Cu  Cu10  1  0.42517000  0.00000000  0.00000000  1.0 0.842395608
Cu  Cu11  1  0.50000000  0.92517000  0.50000000  1.0 0.842395608
Cu  Cu12  1  0.57483000  0.00000000  0.00000000  1.0 0.842395608
Cu  Cu13  1  0.00000000  0.42517000  0.00000000  1.0 0.842395608
Cu  Cu14  1  0.07483000  0.50000000  0.50000000  1.0 0.842395608
Cu  Cu15  1  0.00000000  0.57483000  0.00000000  1.0 0.842395608
Cu  Cu16  1  0.92517000  0.50000000  0.50000000  1.0 0.842395608
H  H1  1  0.36040000  0.10810000  0.37570000  1.0 0.1390849353
H  H2  1  0.39190000  0.86040000  0.87570000  1.0 0.1390849353
H  H3  1  0.63960000  0.89190000  0.37570000  1.0 0.1390849353
H  H4  1  0.60810000  0.13960000  0.87570000  1.0 0.1390849353
H  H5  1  0.36040000  0.89190000  0.62430000  1.0 0.1390849353
H  H6  1  0.63960000  0.10810000  0.62430000  1.0 0.1390849353
H  H7  1  0.60810000  0.86040000  0.12430000  1.0 0.1390849353
H  H8  1  0.39190000  0.13960000  0.12430000  1.0 0.1390849353
H  H9  1  0.13960000  0.39190000  0.12430000  1.0 0.1390849353
H  H10  1  0.10810000  0.63960000  0.62430000  1.0 0.1390849353
H  H11  1  0.86040000  0.60810000  0.12430000  1.0 0.1390849353
H  H12  1  0.89190000  0.36040000  0.62430000  1.0 0.1390849353
H  H13  1  0.13960000  0.60810000  0.87570000  1.0 0.1390849353
H  H14  1  0.86040000  0.39190000  0.87570000  1.0 0.1390849353
H  H15  1  0.89190000  0.63960000  0.37570000  1.0 0.1390849353
H  H16  1  0.10810000  0.36040000  0.37570000  1.0 0.1390849353
H  H17  1  0.21760000  0.99180000  0.28890000  1.0 0.1320880136
H  H18  1  0.50820000  0.71760000  0.78890000  1.0 0.1320880136
H  H19  1  0.78240000  0.00820000  0.28890000  1.0 0.1320880136
H  H20  1  0.49180000  0.28240000  0.78890000  1.0 0.1320880136
H  H21  1  0.21760000  0.00820000  0.71110000  1.0 0.1320880136
H  H22  1  0.78240000  0.99180000  0.71110000  1.0 0.1320880136
H  H23  1  0.49180000  0.71760000  0.21110000  1.0 0.1320880136
H  H24  1  0.50820000  0.28240000  0.21110000  1.0 0.1320880136
H  H25  1  0.28240000  0.50820000  0.21110000  1.0 0.1320880136
H  H26  1  0.99180000  0.78240000  0.71110000  1.0 0.1320880136
H  H27  1  0.71760000  0.49180000  0.21110000  1.0 0.1320880136
H  H28  1  0.00820000  0.21760000  0.71110000  1.0 0.1320880136
H  H29  1  0.28240000  0.49180000  0.78890000  1.0 0.1320880136
H  H30  1  0.71760000  0.50820000  0.78890000  1.0 0.1320880136
H  H31  1  0.00820000  0.78240000  0.28890000  1.0 0.1320880136
H  H32  1  0.99180000  0.21760000  0.28890000  1.0 0.1320880136
H  H33  1  0.31430000  0.88610000  0.39900000  1.0 0.1390849353
H  H34  1  0.61390000  0.81430000  0.89900000  1.0 0.1390849353
H  H35  1  0.68570000  0.11390000  0.39900000  1.0 0.1390849353
H  H36  1  0.38610000  0.18570000  0.89900000  1.0 0.1390849353
H  H37  1  0.31430000  0.11390000  0.60100000  1.0 0.1390849353
H  H38  1  0.68570000  0.88610000  0.60100000  1.0 0.1390849353
H  H39  1  0.38610000  0.81430000  0.10100000  1.0 0.1390849353
H  H40  1  0.61390000  0.18570000  0.10100000  1.0 0.1390849353
H  H41  1  0.18570000  0.61390000  0.10100000  1.0 0.1390849353
H  H42  1  0.88610000  0.68570000  0.60100000  1.0 0.1390849353
H  H43  1  0.81430000  0.38610000  0.10100000  1.0 0.1390849353
H  H44  1  0.11390000  0.31430000  0.60100000  1.0 0.1390849353
H  H45  1  0.18570000  0.38610000  0.89900000  1.0 0.1390849353
H  H46  1  0.81430000  0.61390000  0.89900000  1.0 0.1390849353
H  H47  1  0.11390000  0.68570000  0.39900000  1.0 0.1390849353
H  H48  1  0.88610000  0.31430000  0.39900000  1.0 0.1390849353
H  H49  1  0.14070000  0.85930000  0.37760000  1.0 0.1390849353
H  H50  1  0.64070000  0.64070000  0.87760000  1.0 0.1390849353
H  H51  1  0.85930000  0.14070000  0.37760000  1.0 0.1390849353
H  H52  1  0.35930000  0.35930000  0.87760000  1.0 0.1390849353
H  H53  1  0.14070000  0.14070000  0.62240000  1.0 0.1390849353
H  H54  1  0.85930000  0.85930000  0.62240000  1.0 0.1390849353
H  H55  1  0.35930000  0.64070000  0.12240000  1.0 0.1390849353
H  H56  1  0.64070000  0.35930000  0.12240000  1.0 0.1390849353
H  H57  1  0.24600000  0.86260000  0.25470000  1.0 0.1390849353
H  H58  1  0.63740000  0.74600000  0.75470000  1.0 0.1390849353
H  H59  1  0.75400000  0.13740000  0.25470000  1.0 0.1390849353
H  H60  1  0.36260000  0.25400000  0.75470000  1.0 0.1390849353
H  H61  1  0.24600000  0.13740000  0.74530000  1.0 0.1390849353
H  H62  1  0.75400000  0.86260000  0.74530000  1.0 0.1390849353
H  H63  1  0.36260000  0.74600000  0.24530000  1.0 0.1390849353
H  H64  1  0.63740000  0.25400000  0.24530000  1.0 0.1390849353
H  H65  1  0.25400000  0.63740000  0.24530000  1.0 0.1390849353
H  H66  1  0.86260000  0.75400000  0.74530000  1.0 0.1390849353
H  H67  1  0.74600000  0.36260000  0.24530000  1.0 0.1390849353
H  H68  1  0.13740000  0.24600000  0.74530000  1.0 0.1390849353
H  H69  1  0.25400000  0.36260000  0.75470000  1.0 0.1390849353
H  H70  1  0.74600000  0.63740000  0.75470000  1.0 0.1390849353
H  H71  1  0.13740000  0.75400000  0.25470000  1.0 0.1390849353
H  H72  1  0.86260000  0.24600000  0.25470000  1.0 0.1390849353
C  C1  1  0.40420000  0.99760000  0.43498000  1.0 0.5742139815
C  C2  1  0.50240000  0.90420000  0.93498000  1.0 0.5742139815
C  C3  1  0.59580000  0.00240000  0.43498000  1.0 0.5742139815
C  C4  1  0.49760000  0.09580000  0.93498000  1.0 0.5750757574
C  C5  1  0.40420000  0.00240000  0.56502000  1.0 0.5742139815
C  C6  1  0.59580000  0.99760000  0.56502000  1.0 0.5742139815
C  C7  1  0.49760000  0.90420000  0.06502000  1.0 0.5742139815
C  C8  1  0.50240000  0.09580000  0.06502000  1.0 0.5750757574
C  C9  1  0.09580000  0.50240000  0.06502000  1.0 0.5742139815
C  C10  1  0.99760000  0.59580000  0.56502000  1.0 0.5742139815
C  C11  1  0.90420000  0.49760000  0.06502000  1.0 0.5742139815
C  C12  1  0.00240000  0.40420000  0.56502000  1.0 0.5742139815
C  C13  1  0.09580000  0.49760000  0.93498000  1.0 0.5742139815
C  C14  1  0.90420000  0.50240000  0.93498000  1.0 0.5742139815
C  C15  1  0.00240000  0.59580000  0.43498000  1.0 0.5742139815
C  C16  1  0.99760000  0.40420000  0.43498000  1.0 0.5742139815
C  C17  1  0.28680000  0.06390000  0.32730000  1.0 -0.0041674187
C  C18  1  0.43610000  0.78680000  0.82730000  1.0 -0.0041674187
C  C19  1  0.71320000  0.93610000  0.32730000  1.0 -0.0041674187
C  C20  1  0.56390000  0.21320000  0.82730000  1.0 -0.0041674187
C  C21  1  0.28680000  0.93610000  0.67270000  1.0 -0.0041674187
C  C22  1  0.71320000  0.06390000  0.67270000  1.0 -0.0041674187
C  C23  1  0.56390000  0.78680000  0.17270000  1.0 -0.0041674187
C  C24  1  0.43610000  0.21320000  0.17270000  1.0 -0.0041674187
C  C25  1  0.21320000  0.43610000  0.17270000  1.0 -0.0041674187
C  C26  1  0.06390000  0.71320000  0.67270000  1.0 -0.0041674187
C  C27  1  0.78680000  0.56390000  0.17270000  1.0 -0.0041674187
C  C28  1  0.93610000  0.28680000  0.67270000  1.0 -0.0041674187
C  C29  1  0.21320000  0.56390000  0.82730000  1.0 -0.0041674187
C  C30  1  0.78680000  0.43610000  0.82730000  1.0 -0.0041674187
C  C31  1  0.93610000  0.71320000  0.32730000  1.0 -0.0041674187
C  C32  1  0.06390000  0.28680000  0.32730000  1.0 -0.0041674187
C  C33  1  0.33530000  0.06280000  0.36668000  1.0 -0.1080122099
C  C34  1  0.43720000  0.83530000  0.86668000  1.0 -0.1080122099
C  C35  1  0.66470000  0.93720000  0.36668000  1.0 -0.1080122099
C  C36  1  0.56280000  0.16470000  0.86668000  1.0 -0.1080122099
C  C37  1  0.33530000  0.93720000  0.63332000  1.0 -0.1080122099
C  C38  1  0.66470000  0.06280000  0.63332000  1.0 -0.1080122099
C  C39  1  0.56280000  0.83530000  0.13332000  1.0 -0.1080122099
C  C40  1  0.43720000  0.16470000  0.13332000  1.0 -0.1080122099
C  C41  1  0.16470000  0.43720000  0.13332000  1.0 -0.1080122099
C  C42  1  0.06280000  0.66470000  0.63332000  1.0 -0.1080122099
C  C43  1  0.83530000  0.56280000  0.13332000  1.0 -0.1080122099
C  C44  1  0.93720000  0.33530000  0.63332000  1.0 -0.1080122099
C  C45  1  0.16470000  0.56280000  0.86668000  1.0 -0.1080122099
C  C46  1  0.83530000  0.43720000  0.86668000  1.0 -0.1080122099
C  C47  1  0.93720000  0.66470000  0.36668000  1.0 -0.1080122099
C  C48  1  0.06280000  0.33530000  0.36668000  1.0 -0.1080122099
C  C49  1  0.34860000  0.99730000  0.39360000  1.0 0.0028400045
C  C50  1  0.50270000  0.84860000  0.89360000  1.0 0.0028400045
C  C51  1  0.65140000  0.00270000  0.39360000  1.0 0.0028400045
C  C52  1  0.49730000  0.15140000  0.89360000  1.0 0.0028400045
C  C53  1  0.34860000  0.00270000  0.60640000  1.0 0.0028400045
C  C54  1  0.65140000  0.99730000  0.60640000  1.0 0.0028400045
C  C55  1  0.49730000  0.84860000  0.10640000  1.0 0.0028400045
C  C56  1  0.50270000  0.15140000  0.10640000  1.0 0.0028400045
C  C57  1  0.15140000  0.50270000  0.10640000  1.0 0.0028400045
C  C58  1  0.99730000  0.65140000  0.60640000  1.0 0.011760412
C  C59  1  0.84860000  0.49730000  0.10640000  1.0 0.0028400045
C  C60  1  0.00270000  0.34860000  0.60640000  1.0 0.0028400045
C  C61  1  0.15140000  0.49730000  0.89360000  1.0 0.0028400045
C  C62  1  0.84860000  0.50270000  0.89360000  1.0 0.0028400045
C  C63  1  0.00270000  0.65140000  0.39360000  1.0 0.0028400045
C  C64  1  0.99730000  0.34860000  0.39360000  1.0 0.0028400045
C  C65  1  0.26090000  0.93210000  0.34260000  1.0 0.1320880136
C  C66  1  0.56790000  0.76090000  0.84260000  1.0 0.1320880136
C  C67  1  0.73910000  0.06790000  0.34260000  1.0 0.1320880136
C  C68  1  0.43210000  0.23910000  0.84260000  1.0 0.1320880136
C  C69  1  0.26090000  0.06790000  0.65740000  1.0 0.1320880136
C  C70  1  0.73910000  0.93210000  0.65740000  1.0 0.1320880136
C  C71  1  0.43210000  0.76090000  0.15740000  1.0 0.1320880136
C  C72  1  0.56790000  0.23910000  0.15740000  1.0 0.1320880136
C  C73  1  0.23910000  0.56790000  0.15740000  1.0 0.1320880136
C  C74  1  0.93210000  0.73910000  0.65740000  1.0 0.1320880136
C  C75  1  0.76090000  0.43210000  0.15740000  1.0 0.1320880136
C  C76  1  0.06790000  0.26090000  0.65740000  1.0 0.1320880136
C  C77  1  0.23910000  0.43210000  0.84260000  1.0 0.1320880136
C  C78  1  0.76090000  0.56790000  0.84260000  1.0 0.1320880136
C  C79  1  0.06790000  0.73910000  0.34260000  1.0 0.1320880136
C  C80  1  0.93210000  0.26090000  0.34260000  1.0 0.1320880136
C  C81  1  0.25040000  0.99410000  0.31610000  1.0 -0.2068276455
C  C82  1  0.50590000  0.75040000  0.81610000  1.0 -0.2068276455
C  C83  1  0.74960000  0.00590000  0.31610000  1.0 -0.2068276455
C  C84  1  0.49410000  0.24960000  0.81610000  1.0 -0.2068276455
C  C85  1  0.25040000  0.00590000  0.68390000  1.0 -0.2068276455
C  C86  1  0.74960000  0.99410000  0.68390000  1.0 -0.2068276455
C  C87  1  0.49410000  0.75040000  0.18390000  1.0 -0.2068276455
C  C88  1  0.50590000  0.24960000  0.18390000  1.0 -0.2068276455
C  C89  1  0.24960000  0.50590000  0.18390000  1.0 -0.2068276455
C  C90  1  0.99410000  0.74960000  0.68390000  1.0 -0.2068276455
C  C91  1  0.75040000  0.49410000  0.18390000  1.0 -0.2068276455
C  C92  1  0.00590000  0.25040000  0.68390000  1.0 -0.2068276455
C  C93  1  0.24960000  0.49410000  0.81610000  1.0 -0.2068276455
C  C94  1  0.75040000  0.50590000  0.81610000  1.0 -0.2068276455
C  C95  1  0.00590000  0.74960000  0.31610000  1.0 -0.2068276455
C  C96  1  0.99410000  0.25040000  0.31610000  1.0 -0.2068276455
C  C97  1  0.30800000  0.93110000  0.38070000  1.0 -0.2068276455
C  C98  1  0.56890000  0.80800000  0.88070000  1.0 -0.2068276455
C  C99  1  0.69200000  0.06890000  0.38070000  1.0 -0.2068276455
C  C100  1  0.43110000  0.19200000  0.88070000  1.0 -0.2068276455
C  C101  1  0.30800000  0.06890000  0.61930000  1.0 -0.2068276455
C  C102  1  0.69200000  0.93110000  0.61930000  1.0 -0.2068276455
C  C103  1  0.43110000  0.80800000  0.11930000  1.0 -0.2068276455
C  C104  1  0.56890000  0.19200000  0.11930000  1.0 -0.2068276455
C  C105  1  0.19200000  0.56890000  0.11930000  1.0 -0.2068276455
C  C106  1  0.93110000  0.69200000  0.61930000  1.0 -0.2068276455
C  C107  1  0.80800000  0.43110000  0.11930000  1.0 -0.2068276455
C  C108  1  0.06890000  0.30800000  0.61930000  1.0 -0.2068276455
C  C109  1  0.19200000  0.43110000  0.88070000  1.0 -0.2068276455
C  C110  1  0.80800000  0.56890000  0.88070000  1.0 -0.2068276455
C  C111  1  0.06890000  0.69200000  0.38070000  1.0 -0.2068276455
C  C112  1  0.93110000  0.30800000  0.38070000  1.0 -0.2068276455
C  C113  1  0.27450000  0.13400000  0.29760000  1.0 0.5742139815
C  C114  1  0.36600000  0.77450000  0.79760000  1.0 0.5742139815
C  C115  1  0.72550000  0.86600000  0.29760000  1.0 0.5742139815
C  C116  1  0.63400000  0.22550000  0.79760000  1.0 0.5742139815
C  C117  1  0.27450000  0.86600000  0.70240000  1.0 0.5742139815
C  C118  1  0.72550000  0.13400000  0.70240000  1.0 0.5742139815
C  C119  1  0.63400000  0.77450000  0.20240000  1.0 0.5742139815
C  C120  1  0.36600000  0.22550000  0.20240000  1.0 0.5742139815
C  C121  1  0.22550000  0.36600000  0.20240000  1.0 0.5742139815
C  C122  1  0.13400000  0.72550000  0.70240000  1.0 0.5742139815
C  C123  1  0.77450000  0.63400000  0.20240000  1.0 0.5742139815
C  C124  1  0.86600000  0.27450000  0.70240000  1.0 0.5742139815
C  C125  1  0.22550000  0.63400000  0.79760000  1.0 0.5742139815
C  C126  1  0.77450000  0.36600000  0.79760000  1.0 0.5742139815
C  C127  1  0.86600000  0.72550000  0.29760000  1.0 0.5742139815
C  C128  1  0.13400000  0.27450000  0.29760000  1.0 0.5742139815
C  C129  1  0.16240000  0.83760000  0.34930000  1.0 0.011760412
C  C130  1  0.66240000  0.66240000  0.84930000  1.0 0.011760412
C  C131  1  0.83760000  0.16240000  0.34930000  1.0 0.011760412
C  C132  1  0.33760000  0.33760000  0.84930000  1.0 0.011760412
C  C133  1  0.16240000  0.16240000  0.65070000  1.0 0.011760412
C  C134  1  0.83760000  0.83760000  0.65070000  1.0 0.011760412
C  C135  1  0.33760000  0.66240000  0.15070000  1.0 0.011760412
C  C136  1  0.66240000  0.33760000  0.15070000  1.0 0.011760412
C  C137  1  0.21710000  0.84420000  0.28120000  1.0 -0.1623198216
C  C138  1  0.65580000  0.71710000  0.78120000  1.0 -0.1623198216
C  C139  1  0.78290000  0.15580000  0.28120000  1.0 -0.1623198216
C  C140  1  0.34420000  0.28290000  0.78120000  1.0 -0.1623198216
C  C141  1  0.21710000  0.15580000  0.71880000  1.0 -0.1623198216
C  C142  1  0.78290000  0.84420000  0.71880000  1.0 -0.1623198216
C  C143  1  0.34420000  0.71710000  0.21880000  1.0 -0.1623198216
C  C144  1  0.65580000  0.28290000  0.21880000  1.0 -0.1623198216
C  C145  1  0.28290000  0.65580000  0.21880000  1.0 -0.1623198216
C  C146  1  0.84420000  0.78290000  0.71880000  1.0 -0.1623198216
C  C147  1  0.71710000  0.34420000  0.21880000  1.0 -0.1623198216
C  C148  1  0.15580000  0.21710000  0.71880000  1.0 -0.1623198216
C  C149  1  0.28290000  0.34420000  0.78120000  1.0 -0.1623198216
C  C150  1  0.71710000  0.65580000  0.78120000  1.0 -0.1623198216
C  C151  1  0.15580000  0.78290000  0.28120000  1.0 -0.1623198216
C  C152  1  0.84420000  0.21710000  0.28120000  1.0 -0.1623198216
N  N1  1  0.21980000  0.86650000  0.33070000  1.0 0.0028400045
N  N2  1  0.63350000  0.71980000  0.83070000  1.0 0.0028400045
N  N3  1  0.78020000  0.13350000  0.33070000  1.0 0.0028400045
N  N4  1  0.36650000  0.28020000  0.83070000  1.0 0.0028400045
N  N5  1  0.21980000  0.13350000  0.66930000  1.0 0.0028400045
N  N6  1  0.78020000  0.86650000  0.66930000  1.0 0.0028400045
N  N7  1  0.36650000  0.71980000  0.16930000  1.0 0.0028400045
N  N8  1  0.63350000  0.28020000  0.16930000  1.0 0.0028400045
N  N9  1  0.28020000  0.63350000  0.16930000  1.0 0.0028400045
N  N10  1  0.86650000  0.78020000  0.66930000  1.0 0.0028400045
N  N11  1  0.71980000  0.36650000  0.16930000  1.0 0.0028400045
N  N12  1  0.13350000  0.21980000  0.66930000  1.0 0.0028400045
N  N13  1  0.28020000  0.36650000  0.83070000  1.0 0.0028400045
N  N14  1  0.71980000  0.63350000  0.83070000  1.0 0.0028400045
N  N15  1  0.13350000  0.78020000  0.33070000  1.0 0.0028400045
N  N16  1  0.86650000  0.21980000  0.33070000  1.0 0.0028400045
O  O1  1  0.43220000  0.06060000  0.44464000  1.0 -0.520582088
O  O2  1  0.43940000  0.93220000  0.94464000  1.0 -0.520582088
O  O3  1  0.56780000  0.93940000  0.44464000  1.0 -0.520582088
O  O4  1  0.56060000  0.06780000  0.94464000  1.0 -0.520582088
O  O5  1  0.43220000  0.93940000  0.55536000  1.0 -0.520582088
O  O6  1  0.56780000  0.06060000  0.55536000  1.0 -0.520582088
O  O7  1  0.56060000  0.93220000  0.05536000  1.0 -0.520582088
O  O8  1  0.43940000  0.06780000  0.05536000  1.0 -0.520582088
O  O9  1  0.06780000  0.43940000  0.05536000  1.0 -0.520582088
O  O10  1  0.06060000  0.56780000  0.55536000  1.0 -0.520582088
O  O11  1  0.93220000  0.56060000  0.05536000  1.0 -0.520582088
O  O12  1  0.93940000  0.43220000  0.55536000  1.0 -0.520582088
O  O13  1  0.06780000  0.56060000  0.94464000  1.0 -0.520582088
O  O14  1  0.93220000  0.43940000  0.94464000  1.0 -0.520582088
O  O15  1  0.93940000  0.56780000  0.44464000  1.0 -0.520582088
O  O16  1  0.06060000  0.43220000  0.44464000  1.0 -0.520582088
O  O17  1  0.41480000  0.93620000  0.45539000  1.0 -0.520582088
O  O18  1  0.56380000  0.91480000  0.95539000  1.0 -0.520582088
O  O19  1  0.58520000  0.06380000  0.45539000  1.0 -0.520582088
O  O20  1  0.43620000  0.08520000  0.95539000  1.0 -0.520582088
O  O21  1  0.41480000  0.06380000  0.54461000  1.0 -0.520582088
O  O22  1  0.58520000  0.93620000  0.54461000  1.0 -0.520582088
O  O23  1  0.43620000  0.91480000  0.04461000  1.0 -0.520582088
O  O24  1  0.56380000  0.08520000  0.04461000  1.0 -0.520582088
O  O25  1  0.08520000  0.56380000  0.04461000  1.0 -0.520582088
O  O26  1  0.93620000  0.58520000  0.54461000  1.0 -0.520582088
O  O27  1  0.91480000  0.43620000  0.04461000  1.0 -0.520582088
O  O28  1  0.06380000  0.41480000  0.54461000  1.0 -0.520582088
O  O29  1  0.08520000  0.43620000  0.95539000  1.0 -0.520582088
O  O30  1  0.91480000  0.56380000  0.95539000  1.0 -0.520582088
O  O31  1  0.06380000  0.58520000  0.45539000  1.0 -0.520582088
O  O32  1  0.93620000  0.41480000  0.45539000  1.0 -0.520582088
O  O33  1  0.30390000  0.19193000  0.31428000  1.0 -0.504121329
O  O34  1  0.30807000  0.80390000  0.81428000  1.0 -0.504121329
O  O35  1  0.69610000  0.80807000  0.31428000  1.0 -0.504121329
O  O36  1  0.69193000  0.19610000  0.81428000  1.0 -0.504121329
O  O37  1  0.30390000  0.80807000  0.68572000  1.0 -0.504121329
O  O38  1  0.69610000  0.19193000  0.68572000  1.0 -0.504121329
O  O39  1  0.69193000  0.80390000  0.18572000  1.0 -0.504121329
O  O40  1  0.30807000  0.19610000  0.18572000  1.0 -0.504121329
O  O41  1  0.19610000  0.30807000  0.18572000  1.0 -0.504121329
O  O42  1  0.19193000  0.69610000  0.68572000  1.0 -0.504121329
O  O43  1  0.80390000  0.69193000  0.18572000  1.0 -0.504121329
O  O44  1  0.80807000  0.30390000  0.68572000  1.0 -0.504121329
O  O45  1  0.19610000  0.69193000  0.81428000  1.0 -0.504121329
O  O46  1  0.80390000  0.30807000  0.81428000  1.0 -0.504121329
O  O47  1  0.80807000  0.69610000  0.31428000  1.0 -0.504121329
O  O48  1  0.19193000  0.30390000  0.31428000  1.0 -0.504121329
O  O49  1  0.23510000  0.12560000  0.26046000  1.0 -0.520582088
O  O50  1  0.37440000  0.73510000  0.76046000  1.0 -0.520582088
O  O51  1  0.76490000  0.87440000  0.26046000  1.0 -0.520582088
O  O52  1  0.62560000  0.26490000  0.76046000  1.0 -0.520582088
O  O53  1  0.23510000  0.87440000  0.73954000  1.0 -0.520582088
O  O54  1  0.76490000  0.12560000  0.73954000  1.0 -0.520582088
O  O55  1  0.62560000  0.73510000  0.23954000  1.0 -0.520582088
O  O56  1  0.37440000  0.26490000  0.23954000  1.0 -0.520582088
O  O57  1  0.26490000  0.37440000  0.23954000  1.0 -0.520582088
O  O58  1  0.12560000  0.76490000  0.73954000  1.0 -0.520582088
O  O59  1  0.73510000  0.62560000  0.23954000  1.0 -0.520582088
O  O60  1  0.87440000  0.23510000  0.73954000  1.0 -0.520582088
O  O61  1  0.26490000  0.62560000  0.76046000  1.0 -0.520582088
O  O62  1  0.73510000  0.37440000  0.76046000  1.0 -0.520582088
O  O63  1  0.87440000  0.76490000  0.26046000  1.0 -0.520582088
O  O64  1  0.12560000  0.23510000  0.26046000  1.0 -0.520582088
