# DDEC6 charges by PACMAN v1.1 (https://github.com/mtap-research/PACMAN-charge/)
data_WOZGOH_FSR_pacman
_symmetry_space_group_name_H-M   'P 1'
_cell_length_a   17.95880000
_cell_length_b   17.95880000
_cell_length_c   23.00100000
_cell_angle_alpha   66.45800000
_cell_angle_beta   113.54200000
_cell_angle_gamma   142.95600000
_symmetry_Int_Tables_number   1
_chemical_formula_structural   KCu6H28C27S3N7O6
_chemical_formula_sum   'K4 Cu24 H112 C108 S12 N28 O24'
_cell_volume   4053.11948753
_cell_formula_units_Z   4
loop_
 _symmetry_equiv_pos_site_id
 _symmetry_equiv_pos_as_xyz
  1  'x, y, z'
loop_
 _atom_site_type_symbol
 _atom_site_label
 _atom_site_symmetry_multiplicity
 _atom_site_fract_x
 _atom_site_fract_y
 _atom_site_fract_z
 _atom_site_occupancy
 _atom_site_charge
K  K1  1  0.39452000  0.64368000  0.45524000  1.0 0.773765177
K  K2  1  0.35632000  0.60548000  0.95524000  1.0 0.773765177
K  K3  1  0.60548000  0.35632000  0.54476000  1.0 0.773765177
K  K4  1  0.64368000  0.39452000  0.04476000  1.0 0.773765177
Cu  Cu1  1  0.91166000  0.22692000  0.43237000  1.0 0.2503388081
Cu  Cu2  1  0.77308000  0.08834000  0.93237000  1.0 0.2503388081
Cu  Cu3  1  0.08834000  0.77308000  0.56763000  1.0 0.2503388081
Cu  Cu4  1  0.22692000  0.91166000  0.06763000  1.0 0.2503388081
Cu  Cu5  1  0.79674000  0.12344000  0.52113000  1.0 0.2503388081
Cu  Cu6  1  0.87656000  0.20326000  0.02113000  1.0 0.2503388081
Cu  Cu7  1  0.20326000  0.87656000  0.47887000  1.0 0.2503388081
Cu  Cu8  1  0.12344000  0.79674000  0.97887000  1.0 0.2503388081
Cu  Cu9  1  0.75594000  0.07334000  0.22942000  1.0 0.1408156583
Cu  Cu10  1  0.92666000  0.24406000  0.72942000  1.0 0.1408156583
Cu  Cu11  1  0.24406000  0.92666000  0.77058000  1.0 0.1408156583
Cu  Cu12  1  0.07334000  0.75594000  0.27058000  1.0 0.1408156583
Cu  Cu13  1  0.69147000  0.30315000  0.32814000  1.0 0.3488412131
Cu  Cu14  1  0.69685000  0.30853000  0.82814000  1.0 0.3488412131
Cu  Cu15  1  0.30853000  0.69685000  0.67186000  1.0 0.3488412131
Cu  Cu16  1  0.30315000  0.69147000  0.17186000  1.0 0.3488412131
Cu  Cu17  1  0.00429000  0.02511000  0.57751000  1.0 0.209193055
Cu  Cu18  1  0.97489000  0.99571000  0.07751000  1.0 0.209193055
Cu  Cu19  1  0.99571000  0.97489000  0.42249000  1.0 0.209193055
Cu  Cu20  1  0.02511000  0.00429000  0.92249000  1.0 0.209193055
Cu  Cu21  1  0.00924000  0.76178000  0.75286000  1.0 0.3874270101
Cu  Cu22  1  0.23822000  0.99076000  0.25286000  1.0 0.3874270101
Cu  Cu23  1  0.99076000  0.23822000  0.24714000  1.0 0.3874270101
Cu  Cu24  1  0.76178000  0.00924000  0.74714000  1.0 0.3874270101
H  H1  1  0.02760000  0.48540000  0.45060000  1.0 0.1469441408
H  H2  1  0.51460000  0.97240000  0.95060000  1.0 0.1469441408
H  H3  1  0.97240000  0.51460000  0.54940000  1.0 0.1469441408
H  H4  1  0.48540000  0.02760000  0.04940000  1.0 0.1469441408
H  H5  1  0.17260000  0.60360000  0.44940000  1.0 0.130956829
H  H6  1  0.39640000  0.82740000  0.94940000  1.0 0.130956829
H  H7  1  0.82740000  0.39640000  0.55060000  1.0 0.130956829
H  H8  1  0.60360000  0.17260000  0.05060000  1.0 0.130956829
H  H9  1  0.05790000  0.38970000  0.54390000  1.0 0.0992830669
H  H10  1  0.61030000  0.94210000  0.04390000  1.0 0.0992830669
H  H11  1  0.94210000  0.61030000  0.45610000  1.0 0.0992830669
H  H12  1  0.38970000  0.05790000  0.95610000  1.0 0.0992830669
H  H13  1  0.13570000  0.51970000  0.55590000  1.0 0.1112322239
H  H14  1  0.48030000  0.86430000  0.05590000  1.0 0.1112322239
H  H15  1  0.86430000  0.48030000  0.44410000  1.0 0.1112322239
H  H16  1  0.51970000  0.13570000  0.94410000  1.0 0.1112322239
H  H17  1  0.51550000  0.89210000  0.56780000  1.0 0.1408156583
H  H18  1  0.10790000  0.48450000  0.06780000  1.0 0.1408156583
H  H19  1  0.48450000  0.10790000  0.43220000  1.0 0.1408156583
H  H20  1  0.89210000  0.51550000  0.93220000  1.0 0.1408156583
H  H21  1  0.42250000  0.76210000  0.54770000  1.0 0.1112322239
H  H22  1  0.23790000  0.57750000  0.04770000  1.0 0.1112322239
H  H23  1  0.57750000  0.23790000  0.45230000  1.0 0.1112322239
H  H24  1  0.76210000  0.42250000  0.95230000  1.0 0.1112322239
H  H25  1  0.52350000  0.98050000  0.46030000  1.0 0.0935597172
H  H26  1  0.01950000  0.47650000  0.96030000  1.0 0.0935597172
H  H27  1  0.47650000  0.01950000  0.53970000  1.0 0.0935597172
H  H28  1  0.98050000  0.52350000  0.03970000  1.0 0.0935597172
H  H29  1  0.38380000  0.86540000  0.47270000  1.0 0.1112322239
H  H30  1  0.13460000  0.61620000  0.97270000  1.0 0.1112322239
H  H31  1  0.61620000  0.13460000  0.52730000  1.0 0.1112322239
H  H32  1  0.86540000  0.38380000  0.02730000  1.0 0.1112322239
H  H33  1  0.33430000  0.85690000  0.35520000  1.0 0.0992830669
H  H34  1  0.14310000  0.66570000  0.85520000  1.0 0.0992830669
H  H35  1  0.66570000  0.14310000  0.64480000  1.0 0.0992830669
H  H36  1  0.85690000  0.33430000  0.14480000  1.0 0.0992830669
H  H37  1  0.47800000  0.96560000  0.35210000  1.0 0.1190989432
H  H38  1  0.03440000  0.52200000  0.85210000  1.0 0.1190989432
H  H39  1  0.52200000  0.03440000  0.64790000  1.0 0.1190989432
H  H40  1  0.96560000  0.47800000  0.14790000  1.0 0.1190989432
H  H41  1  0.45530000  0.84570000  0.31720000  1.0 0.1190989432
H  H42  1  0.15430000  0.54470000  0.81720000  1.0 0.1190989432
H  H43  1  0.54470000  0.15430000  0.68280000  1.0 0.1190989432
H  H44  1  0.84570000  0.45530000  0.18280000  1.0 0.1190989432
H  H45  1  0.35370000  0.83350000  0.27370000  1.0 0.1112322239
H  H46  1  0.16650000  0.64630000  0.77370000  1.0 0.1112322239
H  H47  1  0.64630000  0.16650000  0.72630000  1.0 0.1112322239
H  H48  1  0.83350000  0.35370000  0.22630000  1.0 0.1112322239
H  H49  1  0.15910000  0.66030000  0.33350000  1.0 0.0779568408
H  H50  1  0.33970000  0.84090000  0.83350000  1.0 0.0779568408
H  H51  1  0.84090000  0.33970000  0.66650000  1.0 0.0779568408
H  H52  1  0.66030000  0.15910000  0.16650000  1.0 0.0779568408
H  H53  1  0.15000000  0.64360000  0.26810000  1.0 0.0992830669
H  H54  1  0.35640000  0.85000000  0.76810000  1.0 0.0992830669
H  H55  1  0.85000000  0.35640000  0.73190000  1.0 0.0992830669
H  H56  1  0.64360000  0.15000000  0.23190000  1.0 0.0992830669
H  H57  1  0.98600000  0.45320000  0.32600000  1.0 0.1408156583
H  H58  1  0.54680000  0.01400000  0.82600000  1.0 0.1408156583
H  H59  1  0.01400000  0.54680000  0.67400000  1.0 0.1408156583
H  H60  1  0.45320000  0.98600000  0.17400000  1.0 0.1408156583
H  H61  1  0.06010000  0.45130000  0.30820000  1.0 0.1469441408
H  H62  1  0.54870000  0.93990000  0.80820000  1.0 0.1469441408
H  H63  1  0.93990000  0.54870000  0.69180000  1.0 0.1469441408
H  H64  1  0.45130000  0.06010000  0.19180000  1.0 0.1469441408
H  H65  1  0.30050000  0.13430000  0.53750000  1.0 0.130956829
H  H66  1  0.86570000  0.69950000  0.03750000  1.0 0.130956829
H  H67  1  0.69950000  0.86570000  0.46250000  1.0 0.130956829
H  H68  1  0.13430000  0.30050000  0.96250000  1.0 0.130956829
H  H69  1  0.19240000  0.01740000  0.57870000  1.0 0.1469441408
H  H70  1  0.98260000  0.80760000  0.07870000  1.0 0.1469441408
H  H71  1  0.80760000  0.98260000  0.42130000  1.0 0.1469441408
H  H72  1  0.01740000  0.19240000  0.92130000  1.0 0.1469441408
H  H73  1  0.35130000  0.12990000  0.65350000  1.0 0.0992830669
H  H74  1  0.87010000  0.64870000  0.15350000  1.0 0.0992830669
H  H75  1  0.64870000  0.87010000  0.34650000  1.0 0.0992830669
H  H76  1  0.12990000  0.35130000  0.84650000  1.0 0.0992830669
H  H77  1  0.29270000  0.16870000  0.64220000  1.0 0.0935597172
H  H78  1  0.83130000  0.70730000  0.14220000  1.0 0.0935597172
H  H79  1  0.70730000  0.83130000  0.35780000  1.0 0.0935597172
H  H80  1  0.16870000  0.29270000  0.85780000  1.0 0.0935597172
H  H81  1  0.49160000  0.34300000  0.68650000  1.0 0.1112322239
H  H82  1  0.65700000  0.50840000  0.18650000  1.0 0.1112322239
H  H83  1  0.50840000  0.65700000  0.31350000  1.0 0.1112322239
H  H84  1  0.34300000  0.49160000  0.81350000  1.0 0.1112322239
H  H85  1  0.58050000  0.35210000  0.67680000  1.0 0.1112322239
H  H86  1  0.64790000  0.41950000  0.17680000  1.0 0.1112322239
H  H87  1  0.41950000  0.64790000  0.32320000  1.0 0.1112322239
H  H88  1  0.35210000  0.58050000  0.82320000  1.0 0.1112322239
H  H89  1  0.68770000  0.55230000  0.66550000  1.0 0.1112322239
H  H90  1  0.44770000  0.31230000  0.16550000  1.0 0.1112322239
H  H91  1  0.31230000  0.44770000  0.33450000  1.0 0.1112322239
H  H92  1  0.55230000  0.68770000  0.83450000  1.0 0.1112322239
H  H93  1  0.57910000  0.52150000  0.61390000  1.0 0.0992830669
H  H94  1  0.47850000  0.42090000  0.11390000  1.0 0.0992830669
H  H95  1  0.42090000  0.47850000  0.38610000  1.0 0.0992830669
H  H96  1  0.52150000  0.57910000  0.88610000  1.0 0.0992830669
H  H97  1  0.82480000  0.71540000  0.59390000  1.0 0.0992830669
H  H98  1  0.28460000  0.17520000  0.09390000  1.0 0.0992830669
H  H99  1  0.17520000  0.28460000  0.40610000  1.0 0.0992830669
H  H100  1  0.71540000  0.82480000  0.90610000  1.0 0.0992830669
H  H101  1  0.82860000  0.68760000  0.53920000  1.0 0.0992830669
H  H102  1  0.31240000  0.17140000  0.03920000  1.0 0.0992830669
H  H103  1  0.17140000  0.31240000  0.46080000  1.0 0.0992830669
H  H104  1  0.68760000  0.82860000  0.96080000  1.0 0.0992830669
H  H105  1  0.32790000  0.34030000  0.52610000  1.0 0.130956829
H  H106  1  0.65970000  0.67210000  0.02610000  1.0 0.130956829
H  H107  1  0.67210000  0.65970000  0.47390000  1.0 0.130956829
H  H108  1  0.34030000  0.32790000  0.97390000  1.0 0.130956829
H  H109  1  0.33780000  0.31860000  0.47110000  1.0 0.1190989432
H  H110  1  0.68140000  0.66220000  0.97110000  1.0 0.1190989432
H  H111  1  0.66220000  0.68140000  0.52890000  1.0 0.1190989432
H  H112  1  0.31860000  0.33780000  0.02890000  1.0 0.1190989432
C  C1  1  0.10460000  0.51360000  0.46120000  1.0 -0.2713248651
C  C2  1  0.48640000  0.89540000  0.96120000  1.0 -0.2713248651
C  C3  1  0.89540000  0.48640000  0.53880000  1.0 -0.2713248651
C  C4  1  0.51360000  0.10460000  0.03880000  1.0 -0.2713248651
C  C5  1  0.12750000  0.47950000  0.53170000  1.0 -0.0005237588
C  C6  1  0.52050000  0.87250000  0.03170000  1.0 -0.0005237588
C  C7  1  0.87250000  0.52050000  0.46830000  1.0 -0.0005237588
C  C8  1  0.47950000  0.12750000  0.96830000  1.0 -0.0005237588
C  C9  1  0.26220000  0.47580000  0.60700000  1.0 0.0431083315
C  C10  1  0.52420000  0.73780000  0.10700000  1.0 0.0431083315
C  C11  1  0.73780000  0.52420000  0.39300000  1.0 0.0431083315
C  C12  1  0.47580000  0.26220000  0.89300000  1.0 0.0431083315
C  C13  1  0.36680000  0.50140000  0.61230000  1.0 -0.0495943738
C  C14  1  0.49860000  0.63320000  0.11230000  1.0 -0.0623051222
C  C15  1  0.63320000  0.49860000  0.38770000  1.0 -0.0495943738
C  C16  1  0.50140000  0.36680000  0.88770000  1.0 -0.0495943738
C  C17  1  0.54520000  0.71260000  0.63580000  1.0 0.1190989432
C  C18  1  0.28740000  0.45480000  0.13580000  1.0 0.1190989432
C  C19  1  0.45480000  0.28740000  0.36420000  1.0 0.1190989432
C  C20  1  0.71260000  0.54520000  0.86420000  1.0 0.1190989432
C  C21  1  0.65630000  0.84690000  0.61170000  1.0 -0.0784293049
C  C22  1  0.15310000  0.34370000  0.11170000  1.0 -0.0784293049
C  C23  1  0.34370000  0.15310000  0.38830000  1.0 -0.0784293049
C  C24  1  0.84690000  0.65630000  0.88830000  1.0 -0.0784293049
C  C25  1  0.49200000  0.85180000  0.53560000  1.0 -0.2605081026
C  C26  1  0.14820000  0.50800000  0.03560000  1.0 -0.2605081026
C  C27  1  0.50800000  0.14820000  0.46440000  1.0 -0.2605081026
C  C28  1  0.85180000  0.49200000  0.96440000  1.0 -0.2605081026
C  C29  1  0.45500000  0.89040000  0.47150000  1.0 -0.0163395457
C  C30  1  0.10960000  0.54500000  0.97150000  1.0 -0.0163395457
C  C31  1  0.54500000  0.10960000  0.52850000  1.0 -0.0163395457
C  C32  1  0.89040000  0.45500000  0.02850000  1.0 -0.0163395457
C  C33  1  0.40450000  0.87570000  0.36130000  1.0 -0.0495943738
C  C34  1  0.12430000  0.59550000  0.86130000  1.0 -0.0495943738
C  C35  1  0.59550000  0.12430000  0.63870000  1.0 -0.0495943738
C  C36  1  0.87570000  0.40450000  0.13870000  1.0 -0.0495943738
C  C37  1  0.37880000  0.81300000  0.31700000  1.0 -0.0784293049
C  C38  1  0.18700000  0.62120000  0.81700000  1.0 -0.0784293049
C  C39  1  0.62120000  0.18700000  0.68300000  1.0 -0.0784293049
C  C40  1  0.81300000  0.37880000  0.18300000  1.0 -0.0784293049
C  C41  1  0.16420000  0.62540000  0.31440000  1.0 -0.0163395457
C  C42  1  0.37460000  0.83580000  0.81440000  1.0 -0.0163395457
C  C43  1  0.83580000  0.37460000  0.68560000  1.0 -0.0163395457
C  C44  1  0.62540000  0.16420000  0.18560000  1.0 -0.0163395457
C  C45  1  0.06590000  0.48730000  0.33440000  1.0 -0.2605081026
C  C46  1  0.51270000  0.93410000  0.83440000  1.0 -0.2605081026
C  C47  1  0.93410000  0.51270000  0.66560000  1.0 -0.2605081026
C  C48  1  0.48730000  0.06590000  0.16560000  1.0 -0.2605081026
C  C49  1  0.25000000  0.10620000  0.56470000  1.0 -0.2605081026
C  C50  1  0.89380000  0.75000000  0.06470000  1.0 -0.2605081026
C  C51  1  0.75000000  0.89380000  0.43530000  1.0 -0.2605081026
C  C52  1  0.10620000  0.25000000  0.93530000  1.0 -0.2605081026
C  C53  1  0.33380000  0.17160000  0.62240000  1.0 -0.0065890804
C  C54  1  0.82840000  0.66620000  0.12240000  1.0 -0.0065890804
C  C55  1  0.66620000  0.82840000  0.37760000  1.0 -0.0065890804
C  C56  1  0.17160000  0.33380000  0.87760000  1.0 -0.0065890804
C  C57  1  0.53470000  0.36790000  0.65550000  1.0 -0.0623051222
C  C58  1  0.63210000  0.46530000  0.15550000  1.0 -0.0623051222
C  C59  1  0.46530000  0.63210000  0.34450000  1.0 -0.0623051222
C  C60  1  0.36790000  0.53470000  0.84450000  1.0 -0.0623051222
C  C61  1  0.62350000  0.50390000  0.63080000  1.0 -0.0495943738
C  C62  1  0.49610000  0.37650000  0.13080000  1.0 -0.0495943738
C  C63  1  0.37650000  0.49610000  0.36920000  1.0 -0.0495943738
C  C64  1  0.50390000  0.62350000  0.86920000  1.0 -0.0495943738
C  C65  1  0.77460000  0.66800000  0.55860000  1.0 -0.0163395457
C  C66  1  0.33200000  0.22540000  0.05860000  1.0 -0.0163395457
C  C67  1  0.22540000  0.33200000  0.44140000  1.0 -0.0163395457
C  C68  1  0.66800000  0.77460000  0.94140000  1.0 -0.0163395457
C  C69  1  0.28080000  0.29560000  0.48990000  1.0 -0.2605081026
C  C70  1  0.70440000  0.71920000  0.98990000  1.0 -0.2605081026
C  C71  1  0.71920000  0.70440000  0.51010000  1.0 -0.2605081026
C  C72  1  0.29560000  0.28080000  0.01010000  1.0 -0.2605081026
C  C73  1  0.76940000  0.20340000  0.44500000  1.0 -0.1219488099
C  C74  1  0.79660000  0.23060000  0.94500000  1.0 -0.1219488099
C  C75  1  0.23060000  0.79660000  0.55500000  1.0 -0.1219488099
C  C76  1  0.20340000  0.76940000  0.05500000  1.0 -0.1219488099
C  C77  1  0.92620000  0.14140000  0.51560000  1.0 -0.1219488099
C  C78  1  0.85860000  0.07380000  0.01560000  1.0 -0.1219488099
C  C79  1  0.07380000  0.85860000  0.48440000  1.0 -0.1219488099
C  C80  1  0.14140000  0.92620000  0.98440000  1.0 -0.1219488099
C  C81  1  0.00160000  0.93020000  0.65080000  1.0 -0.1029288411
C  C82  1  0.06980000  0.99840000  0.15080000  1.0 -0.1029288411
C  C83  1  0.99840000  0.06980000  0.34920000  1.0 -0.1029288411
C  C84  1  0.93020000  0.00160000  0.84920000  1.0 -0.1029288411
C  C85  1  0.85420000  0.16280000  0.65820000  1.0 -0.0855573449
C  C86  1  0.83720000  0.14580000  0.15820000  1.0 -0.0855573449
C  C87  1  0.14580000  0.83720000  0.34180000  1.0 -0.0855573449
C  C88  1  0.16280000  0.85420000  0.84180000  1.0 -0.0855573449
C  C89  1  0.58350000  0.91870000  0.21470000  1.0 -0.0495943738
C  C90  1  0.08130000  0.41650000  0.71470000  1.0 -0.0495943738
C  C91  1  0.41650000  0.08130000  0.78530000  1.0 -0.0495943738
C  C92  1  0.91870000  0.58350000  0.28530000  1.0 -0.0495943738
C  C93  1  0.81700000  0.13900000  0.30430000  1.0 -0.0784293049
C  C94  1  0.86100000  0.18300000  0.80430000  1.0 -0.0784293049
C  C95  1  0.18300000  0.86100000  0.69570000  1.0 -0.0784293049
C  C96  1  0.13900000  0.81700000  0.19570000  1.0 -0.0784293049
C  C97  1  0.52200000  0.18400000  0.29700000  1.0 -0.1539544012
C  C98  1  0.81600000  0.47800000  0.79700000  1.0 -0.1539544012
C  C99  1  0.47800000  0.81600000  0.70300000  1.0 -0.1539544012
C  C100  1  0.18400000  0.52200000  0.20300000  1.0 -0.1539544012
C  C101  1  0.39700000  0.57500000  0.63440000  1.0 0.0302544743
C  C102  1  0.42500000  0.60300000  0.13440000  1.0 0.0302544743
C  C103  1  0.60300000  0.42500000  0.36560000  1.0 0.0302544743
C  C104  1  0.57500000  0.39700000  0.86560000  1.0 0.0302544743
C  C105  1  0.60180000  0.72380000  0.62000000  1.0 0.0714237545
C  C106  1  0.27620000  0.39820000  0.12000000  1.0 0.0714237545
C  C107  1  0.39820000  0.27620000  0.38000000  1.0 0.0714237545
C  C108  1  0.72380000  0.60180000  0.88000000  1.0 0.0714237545
S  S1  1  0.09378000  0.43982000  0.41783000  1.0 0.0302544743
S  S2  1  0.56018000  0.90622000  0.91783000  1.0 0.0302544743
S  S3  1  0.90622000  0.56018000  0.58217000  1.0 0.0302544743
S  S4  1  0.43982000  0.09378000  0.08217000  1.0 0.0302544743
S  S5  1  0.62284000  0.89736000  0.53058000  1.0 -0.0163395457
S  S6  1  0.10264000  0.37716000  0.03058000  1.0 -0.0163395457
S  S7  1  0.37716000  0.10264000  0.46942000  1.0 -0.0163395457
S  S8  1  0.89736000  0.62284000  0.96942000  1.0 -0.0163395457
S  S9  1  0.16029000  0.12951000  0.51731000  1.0 0.0431083315
S  S10  1  0.87049000  0.83971000  0.01731000  1.0 0.0431083315
S  S11  1  0.83971000  0.87049000  0.48269000  1.0 0.0431083315
S  S12  1  0.12951000  0.16029000  0.98269000  1.0 0.0431083315
N  N1  1  0.73880000  0.24020000  0.40420000  1.0 -0.3131790604
N  N2  1  0.75980000  0.26120000  0.90420000  1.0 -0.3131790604
N  N3  1  0.26120000  0.75980000  0.59580000  1.0 -0.3131790604
N  N4  1  0.24020000  0.73880000  0.09580000  1.0 -0.3131790604
N  N5  1  0.96420000  0.10700000  0.54480000  1.0 -0.2605081026
N  N6  1  0.89300000  0.03580000  0.04480000  1.0 -0.2605081026
N  N7  1  0.03580000  0.89300000  0.45520000  1.0 -0.2605081026
N  N8  1  0.10700000  0.96420000  0.95520000  1.0 -0.2605081026
N  N9  1  0.00150000  0.86810000  0.69260000  1.0 -0.3005082603
N  N10  1  0.13190000  0.99850000  0.19260000  1.0 -0.3005082603
N  N11  1  0.99850000  0.13190000  0.30740000  1.0 -0.3005082603
N  N12  1  0.86810000  0.00150000  0.80740000  1.0 -0.3005082603
N  N13  1  0.83320000  0.14800000  0.60750000  1.0 -0.28129743
N  N14  1  0.85200000  0.16680000  0.10750000  1.0 -0.28129743
N  N15  1  0.16680000  0.85200000  0.39250000  1.0 -0.28129743
N  N16  1  0.14800000  0.83320000  0.89250000  1.0 -0.28129743
N  N17  1  0.47980000  0.83160000  0.19970000  1.0 -0.3299637283
N  N18  1  0.16840000  0.52020000  0.69970000  1.0 -0.3299637283
N  N19  1  0.52020000  0.16840000  0.80030000  1.0 -0.3299637283
N  N20  1  0.83160000  0.47980000  0.30030000  1.0 -0.3299637283
N  N21  1  0.84840000  0.16900000  0.35230000  1.0 -0.3176066275
N  N22  1  0.83100000  0.15160000  0.85230000  1.0 -0.3176066275
N  N23  1  0.15160000  0.83100000  0.64770000  1.0 -0.3176066275
N  N24  1  0.16900000  0.84840000  0.14770000  1.0 -0.3176066275
N  N25  1  0.41570000  0.11130000  0.27870000  1.0 -0.3299637283
N  N26  1  0.88870000  0.58430000  0.77870000  1.0 -0.3299637283
N  N27  1  0.58430000  0.88870000  0.72130000  1.0 -0.3299637283
N  N28  1  0.11130000  0.41570000  0.22130000  1.0 -0.3299637283
O  O1  1  0.23850000  0.51930000  0.54480000  1.0 -0.242158107
O  O2  1  0.48070000  0.76150000  0.04480000  1.0 -0.242158107
O  O3  1  0.76150000  0.48070000  0.45520000  1.0 -0.242158107
O  O4  1  0.51930000  0.23850000  0.95520000  1.0 -0.242158107
O  O5  1  0.47570000  0.62870000  0.59290000  1.0 -0.0282834596
O  O6  1  0.37130000  0.52430000  0.09290000  1.0 -0.0282834596
O  O7  1  0.52430000  0.37130000  0.40710000  1.0 -0.0282834596
O  O8  1  0.62870000  0.47570000  0.90710000  1.0 -0.0282834596
O  O9  1  0.42400000  0.83280000  0.42530000  1.0 -0.2605081026
O  O10  1  0.16720000  0.57600000  0.92530000  1.0 -0.2605081026
O  O11  1  0.57600000  0.16720000  0.57470000  1.0 -0.2605081026
O  O12  1  0.83280000  0.42400000  0.07470000  1.0 -0.2605081026
O  O13  1  0.28460000  0.68160000  0.33350000  1.0 -0.242158107
O  O14  1  0.31840000  0.71540000  0.83350000  1.0 -0.242158107
O  O15  1  0.71540000  0.31840000  0.66650000  1.0 -0.242158107
O  O16  1  0.68160000  0.28460000  0.16650000  1.0 -0.242158107
O  O17  1  0.44660000  0.29720000  0.60440000  1.0 -0.2605081026
O  O18  1  0.70280000  0.55340000  0.10440000  1.0 -0.2605081026
O  O19  1  0.55340000  0.70280000  0.39560000  1.0 -0.2605081026
O  O20  1  0.29720000  0.44660000  0.89560000  1.0 -0.2605081026
O  O21  1  0.67910000  0.53850000  0.58190000  1.0 -0.2713248651
O  O22  1  0.46150000  0.32090000  0.08190000  1.0 -0.2713248651
O  O23  1  0.32090000  0.46150000  0.41810000  1.0 -0.2713248651
O  O24  1  0.53850000  0.67910000  0.91810000  1.0 -0.2713248651
