# DDEC6 charges by PACMAN v1.1 (https://github.com/mtap-research/PACMAN-charge/)
data_WUDZUS_ASR_pacman
_symmetry_space_group_name_H-M   'P 1'
_cell_length_a   18.88450000
_cell_length_b   18.88450000
_cell_length_c   31.19400000
_cell_angle_alpha   78.28790000
_cell_angle_beta   101.71200000
_cell_angle_gamma   132.92900000
_symmetry_Int_Tables_number   1
_chemical_formula_structural   Zn11H48C72(I11N12)2
_chemical_formula_sum   'Zn22 H96 C144 I44 N48'
_cell_volume   7943.20371477
_cell_formula_units_Z   2
loop_
 _symmetry_equiv_pos_site_id
 _symmetry_equiv_pos_as_xyz
  1  'x, y, z'
loop_
 _atom_site_type_symbol
 _atom_site_label
 _atom_site_symmetry_multiplicity
 _atom_site_fract_x
 _atom_site_fract_y
 _atom_site_fract_z
 _atom_site_occupancy
 _atom_site_charge
Zn  Zn1  1  0.18040000  0.53580000  0.96960000  1.0 0.1369379298
Zn  Zn2  1  0.72200000  0.47300000  0.80680000  1.0 0.4168850468
Zn  Zn3  1  0.04195000  0.19201000  0.15266000  1.0 0.4534101919
Zn  Zn4  1  0.83270000  0.97090000  0.64740000  1.0 0.2636186467
Zn  Zn5  1  0.45540000  0.84580000  0.45760000  1.0 0.1508866684
Zn  Zn6  1  0.52370000  0.28670000  0.31580000  1.0 0.2720361785
Zn  Zn7  1  0.17020000  0.55400000  0.95920000  1.0 0.1602244512
Zn  Zn8  1  0.72690000  0.47910000  0.81340000  1.0 0.4116154001
Zn  Zn9  1  0.53150000  0.27810000  0.30450000  1.0 0.1508866684
Zn  Zn10  1  0.47700000  0.82220000  0.47330000  1.0 0.1602244512
Zn  Zn11  1  0.80260000  0.96100000  0.65110000  1.0 0.2022079514
Zn  Zn12  1  0.53580000  0.18040000  0.03040000  1.0 0.1369379298
Zn  Zn13  1  0.47300000  0.72200000  0.19320000  1.0 0.4168850468
Zn  Zn14  1  0.19201000  0.04195000  0.84734000  1.0 0.4534101919
Zn  Zn15  1  0.97090000  0.83270000  0.35260000  1.0 0.2636186467
Zn  Zn16  1  0.84580000  0.45540000  0.54240000  1.0 0.1602244512
Zn  Zn17  1  0.28670000  0.52370000  0.68420000  1.0 0.2720361785
Zn  Zn18  1  0.55400000  0.17020000  0.04080000  1.0 0.1508866684
Zn  Zn19  1  0.47910000  0.72690000  0.18660000  1.0 0.4116154001
Zn  Zn20  1  0.27810000  0.53150000  0.69550000  1.0 0.1508866684
Zn  Zn21  1  0.82220000  0.47700000  0.52670000  1.0 0.1602244512
Zn  Zn22  1  0.96100000  0.80260000  0.34890000  1.0 0.2022079514
H  H1  1  0.37550000  0.66290000  0.01330000  1.0 0.079647006
H  H2  1  0.25470000  0.73850000  0.91850000  1.0 0.0709298675
H  H3  1  0.08370000  0.45250000  0.88060000  1.0 0.058797118
H  H4  1  0.31740000  0.51900000  0.95450000  1.0 0.079647006
H  H5  1  0.52120000  0.82500000  0.01340000  1.0 0.1290133276
H  H6  1  0.39650000  0.90150000  0.91970000  1.0 0.1290133276
H  H7  1  0.09600000  0.38100000  0.83160000  1.0 0.120138564
H  H8  1  0.32970000  0.44330000  0.91040000  1.0 0.120138564
H  H9  1  0.53840000  0.13560000  0.87690000  1.0 0.1290133276
H  H10  1  0.80430000  0.33130000  0.94040000  1.0 0.1096142616
H  H11  1  0.88280000  0.26780000  0.02570000  1.0 0.1096142616
H  H12  1  0.72020000  0.98540000  0.06920000  1.0 0.1096142616
H  H13  1  0.97890000  0.18910000  0.76800000  1.0 0.1290133276
H  H14  1  0.14760000  0.15660000  0.73440000  1.0 0.1290133276
H  H15  1  0.39980000  0.35800000  0.74350000  1.0 0.1369379298
H  H16  1  0.47670000  0.45350000  0.86290000  1.0 0.1290133276
H  H17  1  0.57570000  0.26930000  0.82920000  1.0 0.0995874742
H  H18  1  0.82610000  0.45050000  0.89340000  1.0 0.0709298675
H  H19  1  0.00090000  0.30150000  0.08530000  1.0 0.0709298675
H  H20  1  0.84780000  0.01980000  0.11530000  1.0 0.0887687565
H  H21  1  0.85850000  0.07970000  0.71680000  1.0 0.0709298675
H  H22  1  0.02680000  0.04960000  0.68460000  1.0 0.079647006
H  H23  1  0.53880000  0.39080000  0.74760000  1.0 0.0995874742
H  H24  1  0.62440000  0.49260000  0.86330000  1.0 0.079647006
H  H25  1  0.98910000  0.16110000  0.61200000  1.0 0.079647006
H  H26  1  0.71510000  0.01650000  0.58240000  1.0 0.0709298675
H  H27  1  0.03110000  0.28150000  0.55590000  1.0 0.1096142616
H  H28  1  0.74600000  0.13240000  0.52760000  1.0 0.120138564
H  H29  1  0.10190000  0.60670000  0.41270000  1.0 0.1290133276
H  H30  1  0.18210000  0.50090000  0.51720000  1.0 0.1290133276
H  H31  1  0.86770000  0.47210000  0.38000000  1.0 0.1096142616
H  H32  1  0.67980000  0.20420000  0.43950000  1.0 0.1096142616
H  H33  1  0.27390000  0.75270000  0.41830000  1.0 0.079647006
H  H34  1  0.33750000  0.64310000  0.51540000  1.0 0.079647006
H  H35  1  0.74580000  0.44300000  0.32990000  1.0 0.079647006
H  H36  1  0.55110000  0.18410000  0.39260000  1.0 0.0499111
H  H37  1  0.51170000  0.39110000  0.36810000  1.0 0.0887687565
H  H38  1  0.61260000  0.46600000  0.25000000  1.0 0.0709298675
H  H39  1  0.57230000  0.54150000  0.37260000  1.0 0.120138564
H  H40  1  0.65840000  0.61960000  0.25050000  1.0 0.120138564
H  H41  1  0.81090000  0.02670000  0.26600000  1.0 0.1290133276
H  H42  1  0.84670000  0.85890000  0.23370000  1.0 0.1290133276
H  H43  1  0.64640000  0.92700000  0.33640000  1.0 0.120138564
H  H44  1  0.55590000  0.68410000  0.41050000  1.0 0.120138564
H  H45  1  0.92170000  0.15270000  0.21880000  1.0 0.0995874742
H  H46  1  0.96140000  0.99140000  0.18820000  1.0 0.0995874742
H  H47  1  0.58150000  0.94490000  0.38160000  1.0 0.079647006
H  H48  1  0.48310000  0.70710000  0.45060000  1.0 0.079647006
H  H49  1  0.66290000  0.37550000  0.98670000  1.0 0.079647006
H  H50  1  0.73850000  0.25470000  0.08150000  1.0 0.0709298675
H  H51  1  0.45250000  0.08370000  0.11940000  1.0 0.058797118
H  H52  1  0.51900000  0.31740000  0.04550000  1.0 0.079647006
H  H53  1  0.82500000  0.52120000  0.98660000  1.0 0.1290133276
H  H54  1  0.90150000  0.39650000  0.08030000  1.0 0.1290133276
H  H55  1  0.38100000  0.09600000  0.16840000  1.0 0.120138564
H  H56  1  0.44330000  0.32970000  0.08960000  1.0 0.120138564
H  H57  1  0.13560000  0.53840000  0.12310000  1.0 0.1290133276
H  H58  1  0.33130000  0.80430000  0.05960000  1.0 0.1096142616
H  H59  1  0.26780000  0.88280000  0.97430000  1.0 0.1096142616
H  H60  1  0.98540000  0.72020000  0.93080000  1.0 0.1096142616
H  H61  1  0.18910000  0.97890000  0.23200000  1.0 0.1290133276
H  H62  1  0.15660000  0.14760000  0.26560000  1.0 0.1290133276
H  H63  1  0.35800000  0.39980000  0.25650000  1.0 0.1369379298
H  H64  1  0.45350000  0.47670000  0.13710000  1.0 0.1290133276
H  H65  1  0.26930000  0.57570000  0.17080000  1.0 0.0995874742
H  H66  1  0.45050000  0.82610000  0.10660000  1.0 0.0709298675
H  H67  1  0.30150000  0.00090000  0.91470000  1.0 0.0709298675
H  H68  1  0.01980000  0.84780000  0.88470000  1.0 0.0887687565
H  H69  1  0.07970000  0.85850000  0.28320000  1.0 0.0709298675
H  H70  1  0.04960000  0.02680000  0.31540000  1.0 0.079647006
H  H71  1  0.39080000  0.53880000  0.25240000  1.0 0.0995874742
H  H72  1  0.49260000  0.62440000  0.13670000  1.0 0.079647006
H  H73  1  0.16110000  0.98910000  0.38800000  1.0 0.079647006
H  H74  1  0.01650000  0.71510000  0.41760000  1.0 0.0709298675
H  H75  1  0.28150000  0.03110000  0.44410000  1.0 0.1096142616
H  H76  1  0.13240000  0.74600000  0.47240000  1.0 0.120138564
H  H77  1  0.60670000  0.10190000  0.58730000  1.0 0.1290133276
H  H78  1  0.50090000  0.18210000  0.48280000  1.0 0.1290133276
H  H79  1  0.47210000  0.86770000  0.62000000  1.0 0.1096142616
H  H80  1  0.20420000  0.67980000  0.56050000  1.0 0.1096142616
H  H81  1  0.75270000  0.27390000  0.58170000  1.0 0.079647006
H  H82  1  0.64310000  0.33750000  0.48460000  1.0 0.079647006
H  H83  1  0.44300000  0.74580000  0.67010000  1.0 0.079647006
H  H84  1  0.18410000  0.55110000  0.60740000  1.0 0.0499111
H  H85  1  0.39110000  0.51170000  0.63190000  1.0 0.0887687565
H  H86  1  0.46600000  0.61260000  0.75000000  1.0 0.0709298675
H  H87  1  0.54150000  0.57230000  0.62740000  1.0 0.120138564
H  H88  1  0.61960000  0.65840000  0.74950000  1.0 0.120138564
H  H89  1  0.02670000  0.81090000  0.73400000  1.0 0.1290133276
H  H90  1  0.85890000  0.84670000  0.76630000  1.0 0.1290133276
H  H91  1  0.92700000  0.64640000  0.66360000  1.0 0.120138564
H  H92  1  0.68410000  0.55590000  0.58950000  1.0 0.120138564
H  H93  1  0.15270000  0.92170000  0.78120000  1.0 0.0995874742
H  H94  1  0.99140000  0.96140000  0.81180000  1.0 0.0995874742
H  H95  1  0.94490000  0.58150000  0.61840000  1.0 0.079647006
H  H96  1  0.70710000  0.48310000  0.54940000  1.0 0.079647006
C  C1  1  0.38150000  0.71270000  0.99430000  1.0 0.0232424153
C  C2  1  0.30930000  0.75730000  0.93840000  1.0 0.079647006
C  C3  1  0.13380000  0.45060000  0.88660000  1.0 0.0499111
C  C4  1  0.27080000  0.48840000  0.93020000  1.0 0.0300600201
C  C5  1  0.46610000  0.80790000  0.99450000  1.0 -0.1495386773
C  C6  1  0.39340000  0.85360000  0.93890000  1.0 -0.1818475377
C  C7  1  0.14040000  0.40700000  0.85710000  1.0 -0.1672520922
C  C8  1  0.27960000  0.44520000  0.90370000  1.0 -0.1589602245
C  C9  1  0.47260000  0.88040000  0.96720000  1.0 0.058797118
C  C10  1  0.21210000  0.40330000  0.86600000  1.0 0.058797118
C  C11  1  0.56640000  0.98660000  0.96860000  1.0 0.3456321941
C  C12  1  0.22620000  0.36180000  0.83580000  1.0 0.3197369065
C  C13  1  0.65620000  0.14440000  0.94700000  1.0 0.3197369065
C  C14  1  0.71440000  0.09540000  0.00360000  1.0 0.3420998917
C  C15  1  0.16450000  0.26830000  0.78220000  1.0 0.3420998917
C  C16  1  0.32140000  0.36220000  0.80800000  1.0 0.3197369065
C  C17  1  0.66980000  0.21820000  0.91530000  1.0 0.0499111
C  C18  1  0.78770000  0.11910000  0.03850000  1.0 0.0409412773
C  C19  1  0.08020000  0.19160000  0.75370000  1.0 0.0499111
C  C20  1  0.41770000  0.39210000  0.80510000  1.0 0.0709298675
C  C21  1  0.59890000  0.19950000  0.88100000  1.0 -0.1672520922
C  C22  1  0.75430000  0.31490000  0.91790000  1.0 -0.1300684823
C  C23  1  0.87290000  0.21610000  0.04470000  1.0 -0.1672520922
C  C24  1  0.78030000  0.05070000  0.06920000  1.0 -0.1589602245
C  C25  1  0.99160000  0.16380000  0.75040000  1.0 -0.1589602245
C  C26  1  0.08860000  0.14360000  0.73020000  1.0 -0.1818475377
C  C27  1  0.44320000  0.38160000  0.76940000  1.0 -0.1300684823
C  C28  1  0.48790000  0.43810000  0.83930000  1.0 -0.139829252
C  C29  1  0.62280000  0.28160000  0.85260000  1.0 0.0995874742
C  C30  1  0.76740000  0.38540000  0.88970000  1.0 -0.0187554151
C  C31  1  0.94470000  0.23610000  0.08030000  1.0 0.079647006
C  C32  1  0.85310000  0.07130000  0.09900000  1.0 0.058797118
C  C33  1  0.91960000  0.09680000  0.72030000  1.0 0.0499111
C  C34  1  0.01670000  0.07870000  0.70120000  1.0 0.0300600201
C  C35  1  0.52620000  0.40420000  0.77130000  1.0 0.0300600201
C  C36  1  0.57690000  0.46310000  0.83910000  1.0 0.058797118
C  C37  1  0.93840000  0.15420000  0.59350000  1.0 0.0499111
C  C38  1  0.78070000  0.07110000  0.57680000  1.0 0.0100401777
C  C39  1  0.96520000  0.22720000  0.56100000  1.0 -0.1672520922
C  C40  1  0.79840000  0.13980000  0.54420000  1.0 -0.1672520922
C  C41  1  0.88760000  0.21620000  0.53560000  1.0 0.058797118
C  C42  1  0.91360000  0.29700000  0.49960000  1.0 0.3683148907
C  C43  1  0.02870000  0.44650000  0.46700000  1.0 0.3420998917
C  C44  1  0.86770000  0.35470000  0.44250000  1.0 0.3683148907
C  C45  1  0.12630000  0.53590000  0.46570000  1.0 0.0300600201
C  C46  1  0.78440000  0.33660000  0.41340000  1.0 0.0499111
C  C47  1  0.14790000  0.61090000  0.43410000  1.0 -0.1589602245
C  C48  1  0.19740000  0.55140000  0.49510000  1.0 -0.139829252
C  C49  1  0.80350000  0.41090000  0.38150000  1.0 -0.1589602245
C  C50  1  0.69390000  0.25450000  0.41780000  1.0 -0.1495386773
C  C51  1  0.25440000  0.69900000  0.43900000  1.0 0.0887687565
C  C52  1  0.29070000  0.63730000  0.49400000  1.0 0.0100401777
C  C53  1  0.73120000  0.39540000  0.35340000  1.0 -0.0016891082
C  C54  1  0.61650000  0.24230000  0.38900000  1.0 0.0499111
C  C55  1  0.54610000  0.43990000  0.34480000  1.0 -0.0016891082
C  C56  1  0.60200000  0.47960000  0.27450000  1.0 0.058797118
C  C57  1  0.57660000  0.52540000  0.34690000  1.0 -0.1495386773
C  C58  1  0.63040000  0.57320000  0.27520000  1.0 -0.1589602245
C  C59  1  0.61850000  0.59590000  0.30930000  1.0 0.0232424153
C  C60  1  0.64670000  0.68690000  0.30780000  1.0 0.3420998917
C  C61  1  0.73680000  0.84540000  0.28200000  1.0 0.3556081043
C  C62  1  0.63640000  0.78520000  0.33610000  1.0 0.3420998917
C  C63  1  0.81310000  0.92810000  0.25400000  1.0 0.0409412773
C  C64  1  0.60030000  0.79910000  0.36570000  1.0 0.0232424153
C  C65  1  0.84040000  0.01720000  0.24940000  1.0 -0.1818475377
C  C66  1  0.86060000  0.91820000  0.23130000  1.0 -0.1589602245
C  C67  1  0.61050000  0.87770000  0.35920000  1.0 -0.139829252
C  C68  1  0.55650000  0.73550000  0.40200000  1.0 -0.1300684823
C  C69  1  0.90830000  0.09350000  0.22200000  1.0 0.079647006
C  C70  1  0.92930000  0.99810000  0.20460000  1.0 0.0300600201
C  C71  1  0.56830000  0.88570000  0.38610000  1.0 0.058797118
C  C72  1  0.51420000  0.75180000  0.42580000  1.0 0.0300600201
C  C73  1  0.71270000  0.38150000  0.00570000  1.0 0.0232424153
C  C74  1  0.75730000  0.30930000  0.06160000  1.0 0.079647006
C  C75  1  0.45060000  0.13380000  0.11340000  1.0 0.0499111
C  C76  1  0.48840000  0.27080000  0.06980000  1.0 0.0300600201
C  C77  1  0.80790000  0.46610000  0.00550000  1.0 -0.1495386773
C  C78  1  0.85360000  0.39340000  0.06110000  1.0 -0.1818475377
C  C79  1  0.40700000  0.14040000  0.14290000  1.0 -0.1672520922
C  C80  1  0.44520000  0.27960000  0.09630000  1.0 -0.1589602245
C  C81  1  0.88040000  0.47260000  0.03280000  1.0 0.058797118
C  C82  1  0.40330000  0.21210000  0.13400000  1.0 0.058797118
C  C83  1  0.98660000  0.56640000  0.03140000  1.0 0.3456321941
C  C84  1  0.36180000  0.22620000  0.16420000  1.0 0.3197369065
C  C85  1  0.14440000  0.65620000  0.05300000  1.0 0.3197369065
C  C86  1  0.09540000  0.71440000  0.99640000  1.0 0.3420998917
C  C87  1  0.26830000  0.16450000  0.21780000  1.0 0.3420998917
C  C88  1  0.36220000  0.32140000  0.19200000  1.0 0.3197369065
C  C89  1  0.21820000  0.66980000  0.08470000  1.0 0.0499111
C  C90  1  0.11910000  0.78770000  0.96150000  1.0 0.0409412773
C  C91  1  0.19160000  0.08020000  0.24630000  1.0 0.0499111
C  C92  1  0.39210000  0.41770000  0.19490000  1.0 0.079647006
C  C93  1  0.19950000  0.59890000  0.11900000  1.0 -0.1672520922
C  C94  1  0.31490000  0.75430000  0.08210000  1.0 -0.1300684823
C  C95  1  0.21610000  0.87290000  0.95530000  1.0 -0.1672520922
C  C96  1  0.05070000  0.78030000  0.93080000  1.0 -0.1589602245
C  C97  1  0.16380000  0.99160000  0.24960000  1.0 -0.1589602245
C  C98  1  0.14360000  0.08860000  0.26980000  1.0 -0.1818475377
C  C99  1  0.38160000  0.44320000  0.23060000  1.0 -0.1300684823
C  C100  1  0.43810000  0.48790000  0.16070000  1.0 -0.139829252
C  C101  1  0.28160000  0.62280000  0.14740000  1.0 0.0995874742
C  C102  1  0.38540000  0.76740000  0.11030000  1.0 -0.0187554151
C  C103  1  0.23610000  0.94470000  0.91970000  1.0 0.079647006
C  C104  1  0.07130000  0.85310000  0.90100000  1.0 0.058797118
C  C105  1  0.09680000  0.91960000  0.27970000  1.0 0.0499111
C  C106  1  0.07870000  0.01670000  0.29880000  1.0 0.0300600201
C  C107  1  0.40420000  0.52620000  0.22870000  1.0 0.0300600201
C  C108  1  0.46310000  0.57690000  0.16090000  1.0 0.058797118
C  C109  1  0.15420000  0.93840000  0.40650000  1.0 0.0499111
C  C110  1  0.07110000  0.78070000  0.42320000  1.0 0.0100401777
C  C111  1  0.22720000  0.96520000  0.43900000  1.0 -0.1589602245
C  C112  1  0.13980000  0.79840000  0.45580000  1.0 -0.1672520922
C  C113  1  0.21620000  0.88760000  0.46440000  1.0 0.058797118
C  C114  1  0.29700000  0.91360000  0.50040000  1.0 0.3683148907
C  C115  1  0.44650000  0.02870000  0.53300000  1.0 0.3420998917
C  C116  1  0.35470000  0.86770000  0.55750000  1.0 0.3683148907
C  C117  1  0.53590000  0.12630000  0.53430000  1.0 0.0300600201
C  C118  1  0.33660000  0.78440000  0.58660000  1.0 0.0499111
C  C119  1  0.61090000  0.14790000  0.56590000  1.0 -0.1589602245
C  C120  1  0.55140000  0.19740000  0.50490000  1.0 -0.139829252
C  C121  1  0.41090000  0.80350000  0.61850000  1.0 -0.1589602245
C  C122  1  0.25450000  0.69390000  0.58220000  1.0 -0.1495386773
C  C123  1  0.69900000  0.25440000  0.56100000  1.0 0.0887687565
C  C124  1  0.63730000  0.29070000  0.50600000  1.0 0.0100401777
C  C125  1  0.39540000  0.73120000  0.64660000  1.0 0.0005105366
C  C126  1  0.24230000  0.61650000  0.61100000  1.0 0.0499111
C  C127  1  0.43990000  0.54610000  0.65520000  1.0 -0.0016891082
C  C128  1  0.47960000  0.60200000  0.72550000  1.0 0.058797118
C  C129  1  0.52540000  0.57660000  0.65310000  1.0 -0.1495386773
C  C130  1  0.57320000  0.63040000  0.72480000  1.0 -0.1589602245
C  C131  1  0.59590000  0.61850000  0.69070000  1.0 0.0232424153
C  C132  1  0.68690000  0.64670000  0.69220000  1.0 0.3420998917
C  C133  1  0.84540000  0.73680000  0.71800000  1.0 0.3556081043
C  C134  1  0.78520000  0.63640000  0.66390000  1.0 0.3420998917
C  C135  1  0.92810000  0.81310000  0.74600000  1.0 0.0409412773
C  C136  1  0.79910000  0.60030000  0.63430000  1.0 0.0232424153
C  C137  1  0.01720000  0.84040000  0.75060000  1.0 -0.1818475377
C  C138  1  0.91820000  0.86060000  0.76870000  1.0 -0.1589602245
C  C139  1  0.87770000  0.61050000  0.64080000  1.0 -0.139829252
C  C140  1  0.73550000  0.55650000  0.59800000  1.0 -0.1300684823
C  C141  1  0.09350000  0.90830000  0.77800000  1.0 0.079647006
C  C142  1  0.99810000  0.92930000  0.79540000  1.0 0.0300600201
C  C143  1  0.88570000  0.56830000  0.61390000  1.0 0.058797118
C  C144  1  0.75180000  0.51420000  0.57420000  1.0 0.0300600201
I  I1  1  0.19490000  0.46530000  0.04550000  1.0 0.0300600201
I  I2  1  0.03680000  0.52280000  0.93870000  1.0 0.0100401777
I  I3  1  0.66653000  0.87227000  0.67360000  1.0 -0.0609905108
I  I4  1  0.87969000  0.89531000  0.61700000  1.0 0.0100401777
I  I5  1  0.72800000  0.43360000  0.73800000  1.0 -0.390784712
I  I6  1  0.84800000  0.63120000  0.84080000  1.0 -0.1979440017
I  I7  1  0.36730000  0.15370000  0.35224000  1.0 0.0232424153
I  I8  1  0.55282000  0.27298000  0.24424000  1.0 -0.0609905108
I  I9  1  0.13583000  0.35109000  0.18078000  1.0 -0.4479774623
I  I10  1  0.11746000  0.14770000  0.11887000  1.0 -0.4479774623
I  I11  1  0.45571000  0.97629000  0.42149000  1.0 0.0100401777
I  I12  1  0.54390000  0.86170000  0.53130000  1.0 -0.0520816049
I  I13  1  0.16320000  0.46220000  0.03420000  1.0 -0.0187554151
I  I14  1  0.03180000  0.54140000  0.92680000  1.0 0.058797118
I  I15  1  0.73320000  0.44020000  0.73840000  1.0 -0.390784712
I  I16  1  0.85710000  0.63450000  0.84980000  1.0 -0.2261869027
I  I17  1  0.65570000  0.89230000  0.68400000  1.0 0.0100401777
I  I18  1  0.83570000  0.87890000  0.61970000  1.0 -0.0716092675
I  I19  1  0.38780000  0.15560000  0.33660000  1.0 -0.0287917158
I  I20  1  0.57470000  0.27730000  0.23310000  1.0 -0.0187554151
I  I21  1  0.55350000  0.80430000  0.54470000  1.0 0.0300600201
I  I22  1  0.50400000  0.97180000  0.44950000  1.0 -0.0609905108
I  I23  1  0.46530000  0.19490000  0.95450000  1.0 0.0409412773
I  I24  1  0.52280000  0.03680000  0.06130000  1.0 0.0100401777
I  I25  1  0.87227000  0.66653000  0.32640000  1.0 -0.0520816049
I  I26  1  0.89531000  0.87969000  0.38300000  1.0 0.0100401777
I  I27  1  0.43360000  0.72800000  0.26200000  1.0 -0.390784712
I  I28  1  0.63120000  0.84800000  0.15920000  1.0 -0.1979440017
I  I29  1  0.15370000  0.36730000  0.64776000  1.0 0.0300600201
I  I30  1  0.27298000  0.55282000  0.75576000  1.0 -0.0609905108
I  I31  1  0.35109000  0.13583000  0.81922000  1.0 -0.4479774623
I  I32  1  0.14770000  0.11746000  0.88113000  1.0 -0.4479774623
I  I33  1  0.97629000  0.45571000  0.57851000  1.0 0.0100401777
I  I34  1  0.86170000  0.54390000  0.46870000  1.0 -0.0520816049
I  I35  1  0.46220000  0.16320000  0.96580000  1.0 -0.0187554151
I  I36  1  0.54140000  0.03180000  0.07320000  1.0 0.058797118
I  I37  1  0.44020000  0.73320000  0.26160000  1.0 -0.390784712
I  I38  1  0.63450000  0.85710000  0.15020000  1.0 -0.2261869027
I  I39  1  0.89230000  0.65570000  0.31600000  1.0 0.0100401777
I  I40  1  0.87890000  0.83570000  0.38030000  1.0 -0.0776259019
I  I41  1  0.15560000  0.38780000  0.66340000  1.0 -0.0287917158
I  I42  1  0.27730000  0.57470000  0.76690000  1.0 -0.0187554151
I  I43  1  0.80430000  0.55350000  0.45530000  1.0 0.0300600201
I  I44  1  0.97180000  0.50400000  0.55050000  1.0 -0.0609905108
N  N1  1  0.30500000  0.69240000  0.96510000  1.0 -0.1818475377
N  N2  1  0.19640000  0.48900000  0.92270000  1.0 -0.1914624784
N  N3  1  0.57000000  0.04980000  0.94020000  1.0 -0.4200377925
N  N4  1  0.63540000  0.00340000  0.00160000  1.0 -0.4314549877
N  N5  1  0.14830000  0.30130000  0.80930000  1.0 -0.4101393571
N  N6  1  0.31260000  0.39460000  0.83770000  1.0 -0.4002085565
N  N7  1  0.72850000  0.17010000  0.97680000  1.0 -0.4101393571
N  N8  1  0.24950000  0.29730000  0.77860000  1.0 -0.4200377925
N  N9  1  0.70010000  0.36850000  0.85570000  1.0 -0.1914624784
N  N10  1  0.93370000  0.16430000  0.10620000  1.0 -0.1818475377
N  N11  1  0.93150000  0.05630000  0.69650000  1.0 -0.1914624784
N  N12  1  0.59580000  0.44620000  0.80590000  1.0 -0.2161727561
N  N13  1  0.84970000  0.07610000  0.60110000  1.0 -0.1589602245
N  N14  1  0.00990000  0.37370000  0.49660000  1.0 -0.436312796
N  N15  1  0.84170000  0.28270000  0.47550000  1.0 -0.4200377925
N  N16  1  0.95910000  0.43530000  0.43930000  1.0 -0.4101393571
N  N17  1  0.32090000  0.71390000  0.46510000  1.0 -0.1818475377
N  N18  1  0.63500000  0.31040000  0.35810000  1.0 -0.1672520922
N  N19  1  0.56140000  0.41440000  0.30820000  1.0 -0.2086626082
N  N20  1  0.70900000  0.75900000  0.27840000  1.0 -0.436312796
N  N21  1  0.61090000  0.69630000  0.33730000  1.0 -0.4101393571
N  N22  1  0.70460000  0.86280000  0.30890000  1.0 -0.4002085565
N  N23  1  0.95430000  0.08610000  0.20030000  1.0 -0.2086626082
N  N24  1  0.51210000  0.82390000  0.41720000  1.0 -0.1979440017
N  N25  1  0.69240000  0.30500000  0.03490000  1.0 -0.1818475377
N  N26  1  0.48900000  0.19640000  0.07730000  1.0 -0.1914624784
N  N27  1  0.04980000  0.57000000  0.05980000  1.0 -0.4200377925
N  N28  1  0.00340000  0.63540000  0.99840000  1.0 -0.4314549877
N  N29  1  0.30130000  0.14830000  0.19070000  1.0 -0.4101393571
N  N30  1  0.39460000  0.31260000  0.16230000  1.0 -0.4002085565
N  N31  1  0.17010000  0.72850000  0.02320000  1.0 -0.4101393571
N  N32  1  0.29730000  0.24950000  0.22140000  1.0 -0.4200377925
N  N33  1  0.36850000  0.70010000  0.14430000  1.0 -0.1914624784
N  N34  1  0.16430000  0.93370000  0.89380000  1.0 -0.1818475377
N  N35  1  0.05630000  0.93150000  0.30350000  1.0 -0.1914624784
N  N36  1  0.44620000  0.59580000  0.19410000  1.0 -0.2161727561
N  N37  1  0.07610000  0.84970000  0.39890000  1.0 -0.1589602245
N  N38  1  0.37370000  0.00990000  0.50340000  1.0 -0.436312796
N  N39  1  0.28270000  0.84170000  0.52450000  1.0 -0.4200377925
N  N40  1  0.43530000  0.95910000  0.56070000  1.0 -0.4101393571
N  N41  1  0.71390000  0.32090000  0.53490000  1.0 -0.1818475377
N  N42  1  0.31040000  0.63500000  0.64190000  1.0 -0.1672520922
N  N43  1  0.41440000  0.56140000  0.69180000  1.0 -0.2086626082
N  N44  1  0.75900000  0.70900000  0.72160000  1.0 -0.436312796
N  N45  1  0.69630000  0.61090000  0.66270000  1.0 -0.4101393571
N  N46  1  0.86280000  0.70460000  0.69110000  1.0 -0.4002085565
N  N47  1  0.08610000  0.95430000  0.79970000  1.0 -0.2086626082
N  N48  1  0.82390000  0.51210000  0.58280000  1.0 -0.1979440017
