# DDEC6 charges by PACMAN v1.1 (https://github.com/mtap-research/PACMAN-charge/)
data_WUDZOM_ASR_pacman
_symmetry_space_group_name_H-M   'P 1'
_cell_length_a   18.80120000
_cell_length_b   18.80120000
_cell_length_c   29.95560000
_cell_angle_alpha   79.52100000
_cell_angle_beta   100.47900000
_cell_angle_gamma   132.66100000
_symmetry_Int_Tables_number   1
_chemical_formula_structural   Zn7H48C72(IN)24
_chemical_formula_sum   'Zn14 H96 C144 I48 N48'
_cell_volume   7631.71592721
_cell_formula_units_Z   2
loop_
 _symmetry_equiv_pos_site_id
 _symmetry_equiv_pos_as_xyz
  1  'x, y, z'
loop_
 _atom_site_type_symbol
 _atom_site_label
 _atom_site_symmetry_multiplicity
 _atom_site_fract_x
 _atom_site_fract_y
 _atom_site_fract_z
 _atom_site_occupancy
 _atom_site_charge
Zn  Zn1  1  0.31152000  0.15608000  0.84554000  1.0 0.3021073038
Zn  Zn2  1  0.39296000  0.66164000  0.70934000  1.0 0.3513565703
Zn  Zn3  1  0.07427000  0.91099000  0.34312000  1.0 0.2791967536
Zn  Zn4  1  0.57550000  0.83870000  0.20486000  1.0 0.3129142517
Zn  Zn5  1  0.64995000  0.29385000  0.02680000  1.0 0.2540321494
Zn  Zn6  1  0.92450000  0.58510000  0.51820000  1.0 0.2735759014
Zn  Zn7  1  0.93710000  0.58050000  0.52860000  1.0 0.2880057985
Zn  Zn8  1  0.15608000  0.31152000  0.15446000  1.0 0.3021073038
Zn  Zn9  1  0.66164000  0.39296000  0.29066000  1.0 0.3513565703
Zn  Zn10  1  0.91099000  0.07427000  0.65688000  1.0 0.2791967536
Zn  Zn11  1  0.83870000  0.57550000  0.79514000  1.0 0.3129142517
Zn  Zn12  1  0.29385000  0.64995000  0.97320000  1.0 0.2540321494
Zn  Zn13  1  0.58510000  0.92450000  0.48180000  1.0 0.2735759014
Zn  Zn14  1  0.58050000  0.93710000  0.47140000  1.0 0.2880057985
H  H1  1  0.10530000  0.08170000  0.82020000  1.0 0.0702798473
H  H2  1  0.96740000  0.96400000  0.77400000  1.0 0.1203558152
H  H3  1  0.12490000  0.93430000  0.72070000  1.0 0.1203558152
H  H4  1  0.25370000  0.03850000  0.76840000  1.0 0.0798857621
H  H5  1  0.49070000  0.64190000  0.64130000  1.0 0.0980681647
H  H6  1  0.62120000  0.67360000  0.64050000  1.0 0.1286571486
H  H7  1  0.58040000  0.74140000  0.76670000  1.0 0.0702798473
H  H8  1  0.72020000  0.77220000  0.76290000  1.0 0.1109978849
H  H9  1  0.04430000  0.72690000  0.58820000  1.0 0.0591743192
H  H10  1  0.02240000  0.76200000  0.66060000  1.0 0.1286571486
H  H11  1  0.75960000  0.65340000  0.59020000  1.0 0.1286571486
H  H12  1  0.77050000  0.57290000  0.54680000  1.0 0.0798857621
H  H13  1  0.54090000  0.87470000  0.68920000  1.0 0.0591743192
H  H14  1  0.57680000  0.99260000  0.62930000  1.0 0.0980681647
H  H15  1  0.31380000  0.79000000  0.56740000  1.0 0.0980681647
H  H16  1  0.28830000  0.67850000  0.62300000  1.0 0.0591743192
H  H17  1  0.73530000  0.44610000  0.47590000  1.0 0.0591743192
H  H18  1  0.59980000  0.28580000  0.47270000  1.0 0.1203558152
H  H19  1  0.71420000  0.22680000  0.58450000  1.0 0.1203558152
H  H20  1  0.84720000  0.40180000  0.58840000  1.0 0.0702798473
H  H21  1  0.28410000  0.07450000  0.36360000  1.0 0.0702798473
H  H22  1  0.41660000  0.11760000  0.41690000  1.0 0.0926996948
H  H23  1  0.23260000  0.84280000  0.47440000  1.0 0.1109978849
H  H24  1  0.12050000  0.81410000  0.41470000  1.0 0.0591743192
H  H25  1  0.15970000  0.11890000  0.32310000  1.0 0.0702798473
H  H26  1  0.26960000  0.25920000  0.28040000  1.0 0.1286571486
H  H27  1  0.28450000  0.09830000  0.21430000  1.0 0.1286571486
H  H28  1  0.16620000  0.96280000  0.26150000  1.0 0.0591743192
H  H29  1  0.59730000  0.75090000  0.14990000  1.0 0.0591743192
H  H30  1  0.55470000  0.59870000  0.13760000  1.0 0.1286571486
H  H31  1  0.45450000  0.50710000  0.26250000  1.0 0.1203558152
H  H32  1  0.49980000  0.65620000  0.26560000  1.0 0.0702798473
H  H33  1  0.63020000  0.43120000  0.04010000  1.0 0.0702798473
H  H34  1  0.58310000  0.46630000  0.09370000  1.0 0.1286571486
H  H35  1  0.47280000  0.21080000  0.15820000  1.0 0.1286571486
H  H36  1  0.55260000  0.19880000  0.11900000  1.0 0.0798857621
H  H37  1  0.84490000  0.36830000  0.07240000  1.0 0.0798857621
H  H38  1  0.99110000  0.51030000  0.08860000  1.0 0.1286571486
H  H39  1  0.94110000  0.62830000  0.97690000  1.0 0.1203558152
H  H40  1  0.78180000  0.47820000  0.97560000  1.0 0.0591743192
H  H41  1  0.13850000  0.95790000  0.88520000  1.0 0.0798857621
H  H42  1  0.10160000  0.84240000  0.93810000  1.0 0.1109978849
H  H43  1  0.37860000  0.99420000  0.97530000  1.0 0.1109978849
H  H44  1  0.41940000  0.11060000  0.91590000  1.0 0.0591743192
H  H45  1  0.55770000  0.93350000  0.11730000  1.0 0.0491677694
H  H46  1  0.43730000  0.91110000  0.06250000  1.0 0.0926996948
H  H47  1  0.23650000  0.66190000  0.13810000  1.0 0.1109978849
H  H48  1  0.36640000  0.68720000  0.18260000  1.0 0.0591743192
H  H49  1  0.08170000  0.10530000  0.17980000  1.0 0.0702798473
H  H50  1  0.96400000  0.96740000  0.22600000  1.0 0.1203558152
H  H51  1  0.93430000  0.12490000  0.27930000  1.0 0.1203558152
H  H52  1  0.03850000  0.25370000  0.23160000  1.0 0.0798857621
H  H53  1  0.64190000  0.49070000  0.35870000  1.0 0.0980681647
H  H54  1  0.67360000  0.62120000  0.35950000  1.0 0.1203558152
H  H55  1  0.74140000  0.58040000  0.23330000  1.0 0.0702798473
H  H56  1  0.77220000  0.72020000  0.23710000  1.0 0.1109978849
H  H57  1  0.72690000  0.04430000  0.41180000  1.0 0.0591743192
H  H58  1  0.76200000  0.02240000  0.33940000  1.0 0.1286571486
H  H59  1  0.65340000  0.75960000  0.40980000  1.0 0.1286571486
H  H60  1  0.57290000  0.77050000  0.45320000  1.0 0.0798857621
H  H61  1  0.87470000  0.54090000  0.31080000  1.0 0.0591743192
H  H62  1  0.99260000  0.57680000  0.37070000  1.0 0.0980681647
H  H63  1  0.79000000  0.31380000  0.43260000  1.0 0.0980681647
H  H64  1  0.67850000  0.28830000  0.37700000  1.0 0.0591743192
H  H65  1  0.44610000  0.73530000  0.52410000  1.0 0.0591743192
H  H66  1  0.28580000  0.59980000  0.52730000  1.0 0.1203558152
H  H67  1  0.22680000  0.71420000  0.41550000  1.0 0.1203558152
H  H68  1  0.40180000  0.84720000  0.41160000  1.0 0.0702798473
H  H69  1  0.07450000  0.28410000  0.63640000  1.0 0.0702798473
H  H70  1  0.11760000  0.41660000  0.58310000  1.0 0.0926996948
H  H71  1  0.84280000  0.23260000  0.52560000  1.0 0.1109978849
H  H72  1  0.81410000  0.12050000  0.58530000  1.0 0.0591743192
H  H73  1  0.11890000  0.15970000  0.67690000  1.0 0.0702798473
H  H74  1  0.25920000  0.26960000  0.71960000  1.0 0.1286571486
H  H75  1  0.09830000  0.28450000  0.78570000  1.0 0.1286571486
H  H76  1  0.96280000  0.16620000  0.73850000  1.0 0.0591743192
H  H77  1  0.75090000  0.59730000  0.85010000  1.0 0.0591743192
H  H78  1  0.59870000  0.55470000  0.86240000  1.0 0.1203558152
H  H79  1  0.50710000  0.45450000  0.73750000  1.0 0.1203558152
H  H80  1  0.65620000  0.49980000  0.73440000  1.0 0.0702798473
H  H81  1  0.43120000  0.63020000  0.95990000  1.0 0.0702798473
H  H82  1  0.46630000  0.58310000  0.90630000  1.0 0.1286571486
H  H83  1  0.21080000  0.47280000  0.84180000  1.0 0.1286571486
H  H84  1  0.19880000  0.55260000  0.88100000  1.0 0.0798857621
H  H85  1  0.36830000  0.84490000  0.92760000  1.0 0.0798857621
H  H86  1  0.51030000  0.99110000  0.91140000  1.0 0.1286571486
H  H87  1  0.62830000  0.94110000  0.02310000  1.0 0.1203558152
H  H88  1  0.47820000  0.78180000  0.02440000  1.0 0.0591743192
H  H89  1  0.95790000  0.13850000  0.11480000  1.0 0.0798857621
H  H90  1  0.84240000  0.10160000  0.06190000  1.0 0.1109978849
H  H91  1  0.99420000  0.37860000  0.02470000  1.0 0.1109978849
H  H92  1  0.11060000  0.41940000  0.08410000  1.0 0.0591743192
H  H93  1  0.93350000  0.55770000  0.88270000  1.0 0.0491677694
H  H94  1  0.91110000  0.43730000  0.93750000  1.0 0.0926996948
H  H95  1  0.66190000  0.23650000  0.86190000  1.0 0.1109978849
H  H96  1  0.68720000  0.36640000  0.81740000  1.0 0.0591743192
C  C1  1  0.10960000  0.05080000  0.80030000  1.0 0.0196313123
C  C2  1  0.02750000  0.98090000  0.77260000  1.0 -0.1816032071
C  C3  1  0.03370000  0.93670000  0.74340000  1.0 0.0407044004
C  C4  1  0.11880000  0.96200000  0.74170000  1.0 -0.1702630513
C  C5  1  0.19580000  0.02600000  0.76920000  1.0 0.031667318
C  C6  1  0.53660000  0.66740000  0.66690000  1.0 0.0024528982
C  C7  1  0.61320000  0.68840000  0.66680000  1.0 -0.1702630513
C  C8  1  0.68910000  0.72990000  0.69890000  1.0 0.0591743192
C  C9  1  0.58840000  0.72540000  0.74070000  1.0 0.0491677694
C  C10  1  0.67220000  0.74620000  0.73790000  1.0 -0.2088463064
C  C11  1  0.98200000  0.70000000  0.59410000  1.0 0.0491677694
C  C12  1  0.97520000  0.73280000  0.63530000  1.0 -0.1897207342
C  C13  1  0.88390000  0.71230000  0.62810000  1.0 0.0407044004
C  C14  1  0.81540000  0.66040000  0.59460000  1.0 -0.1610141589
C  C15  1  0.82480000  0.61780000  0.56670000  1.0 0.031667318
C  C16  1  0.94570000  0.85810000  0.71500000  1.0 0.3335700526
C  C17  1  0.78530000  0.76170000  0.69580000  1.0 0.3414717162
C  C18  1  0.87600000  0.75820000  0.65930000  1.0 0.3335700526
C  C19  1  0.49690000  0.85710000  0.66280000  1.0 0.031667318
C  C20  1  0.51570000  0.92810000  0.62840000  1.0 -0.1702630513
C  C21  1  0.44590000  0.90530000  0.59280000  1.0 0.0407044004
C  C22  1  0.36260000  0.80960000  0.59170000  1.0 -0.1702630513
C  C23  1  0.34890000  0.74330000  0.62420000  1.0 0.0491677694
C  C24  1  0.73200000  0.40100000  0.49800000  1.0 0.0702798473
C  C25  1  0.64930000  0.30550000  0.49660000  1.0 -0.1702630513
C  C26  1  0.63740000  0.23840000  0.52960000  1.0 0.0491677694
C  C27  1  0.71580000  0.27140000  0.56290000  1.0 -0.1610141589
C  C28  1  0.79920000  0.37580000  0.56340000  1.0 0.031667318
C  C29  1  0.27370000  0.02810000  0.38750000  1.0 0.0407044004
C  C30  1  0.35260000  0.05700000  0.42080000  1.0 -0.1816032071
C  C31  1  0.33170000  0.99090000  0.46000000  1.0 0.0407044004
C  C32  1  0.24570000  0.89530000  0.45430000  1.0 -0.1897207342
C  C33  1  0.17900000  0.87960000  0.41750000  1.0 0.0702798473
C  C34  1  0.46250000  0.98130000  0.55860000  1.0 0.3513565703
C  C35  1  0.54820000  0.13440000  0.53060000  1.0 0.3183284098
C  C36  1  0.40580000  0.01880000  0.49460000  1.0 0.3129142517
C  C37  1  0.18720000  0.11580000  0.30070000  1.0 0.0591743192
C  C38  1  0.25330000  0.20050000  0.27610000  1.0 -0.1897207342
C  C39  1  0.29580000  0.19640000  0.24410000  1.0 0.0491677694
C  C40  1  0.26130000  0.10570000  0.23720000  1.0 -0.1702630513
C  C41  1  0.19070000  0.02530000  0.26560000  1.0 0.0491677694
C  C42  1  0.56610000  0.69890000  0.17300000  1.0 0.0798857621
C  C43  1  0.54200000  0.60800000  0.16420000  1.0 -0.1993633904
C  C44  1  0.49620000  0.53760000  0.20210000  1.0 0.0407044004
C  C45  1  0.48280000  0.55480000  0.23750000  1.0 -0.1518208912
C  C46  1  0.51030000  0.64430000  0.23910000  1.0 0.0196313123
C  C47  1  0.60280000  0.38820000  0.06670000  1.0 0.0798857621
C  C48  1  0.56860000  0.40660000  0.09640000  1.0 -0.1897207342
C  C49  1  0.51340000  0.33520000  0.12950000  1.0 0.0591743192
C  C50  1  0.51000000  0.26040000  0.13480000  1.0 -0.1518208912
C  C51  1  0.55260000  0.25000000  0.11120000  1.0 -0.0070300457
C  C52  1  0.37430000  0.28550000  0.21830000  1.0 0.3129142517
C  C53  1  0.46630000  0.44170000  0.19560000  1.0 0.3513565703
C  C54  1  0.47600000  0.34840000  0.16490000  1.0 0.3335700526
C  C55  1  0.86090000  0.42510000  0.05610000  1.0 0.0591743192
C  C56  1  0.95180000  0.50800000  0.06290000  1.0 -0.1993633904
C  C57  1  0.98940000  0.58740000  0.03520000  1.0 0.0491677694
C  C58  1  0.92230000  0.57710000  0.99960000  1.0 -0.1816032071
C  C59  1  0.82720000  0.48740000  0.99980000  1.0 0.0491677694
C  C60  1  0.19020000  0.96360000  0.90150000  1.0 0.0122978031
C  C61  1  0.16790000  0.89650000  0.93340000  1.0 -0.1518208912
C  C62  1  0.23450000  0.90190000  0.95930000  1.0 0.0407044004
C  C63  1  0.32880000  0.98460000  0.95420000  1.0 -0.1897207342
C  C64  1  0.35320000  0.05420000  0.91930000  1.0 0.0122978031
C  C65  1  0.49130000  0.87730000  0.12070000  1.0 0.0196313123
C  C66  1  0.42040000  0.86520000  0.08800000  1.0 -0.1518208912
C  C67  1  0.32470000  0.78310000  0.09470000  1.0 0.0407044004
C  C68  1  0.30170000  0.71690000  0.13180000  1.0 -0.1897207342
C  C69  1  0.38020000  0.73600000  0.15940000  1.0 0.0702798473
C  C70  1  0.09110000  0.67850000  0.03320000  1.0 0.3414717162
C  C71  1  0.20780000  0.82640000  0.99990000  1.0 0.3606777856
C  C72  1  0.24960000  0.76840000  0.05980000  1.0 0.3606777856
C  C73  1  0.05080000  0.10960000  0.19970000  1.0 0.0196313123
C  C74  1  0.98090000  0.02750000  0.22740000  1.0 -0.1816032071
C  C75  1  0.93670000  0.03370000  0.25660000  1.0 0.0407044004
C  C76  1  0.96200000  0.11880000  0.25830000  1.0 -0.1702630513
C  C77  1  0.02600000  0.19580000  0.23080000  1.0 0.031667318
C  C78  1  0.66740000  0.53660000  0.33310000  1.0 0.0024528982
C  C79  1  0.68840000  0.61320000  0.33320000  1.0 -0.1702630513
C  C80  1  0.72990000  0.68910000  0.30110000  1.0 0.0591743192
C  C81  1  0.72540000  0.58840000  0.25930000  1.0 0.0491677694
C  C82  1  0.74620000  0.67220000  0.26210000  1.0 -0.2088463064
C  C83  1  0.70000000  0.98200000  0.40590000  1.0 0.0491677694
C  C84  1  0.73280000  0.97520000  0.36470000  1.0 -0.1897207342
C  C85  1  0.71230000  0.88390000  0.37190000  1.0 0.0407044004
C  C86  1  0.66040000  0.81540000  0.40540000  1.0 -0.1610141589
C  C87  1  0.61780000  0.82480000  0.43330000  1.0 0.031667318
C  C88  1  0.85810000  0.94570000  0.28500000  1.0 0.3335700526
C  C89  1  0.76170000  0.78530000  0.30420000  1.0 0.3414717162
C  C90  1  0.75820000  0.87600000  0.34070000  1.0 0.3335700526
C  C91  1  0.85710000  0.49690000  0.33720000  1.0 0.031667318
C  C92  1  0.92810000  0.51570000  0.37160000  1.0 -0.1702630513
C  C93  1  0.90530000  0.44590000  0.40720000  1.0 0.0491677694
C  C94  1  0.80960000  0.36260000  0.40830000  1.0 -0.1702630513
C  C95  1  0.74330000  0.34890000  0.37580000  1.0 0.0491677694
C  C96  1  0.40100000  0.73200000  0.50200000  1.0 0.0702798473
C  C97  1  0.30550000  0.64930000  0.50340000  1.0 -0.1702630513
C  C98  1  0.23840000  0.63740000  0.47040000  1.0 0.0491677694
C  C99  1  0.27140000  0.71580000  0.43710000  1.0 -0.1610141589
C  C100  1  0.37580000  0.79920000  0.43660000  1.0 0.0196313123
C  C101  1  0.02810000  0.27370000  0.61250000  1.0 0.0407044004
C  C102  1  0.05700000  0.35260000  0.57920000  1.0 -0.1816032071
C  C103  1  0.99090000  0.33170000  0.54000000  1.0 0.0407044004
C  C104  1  0.89530000  0.24570000  0.54570000  1.0 -0.1897207342
C  C105  1  0.87960000  0.17900000  0.58250000  1.0 0.0702798473
C  C106  1  0.98130000  0.46250000  0.44140000  1.0 0.3513565703
C  C107  1  0.13440000  0.54820000  0.46940000  1.0 0.3183284098
C  C108  1  0.01880000  0.40580000  0.50540000  1.0 0.3129142517
C  C109  1  0.11580000  0.18720000  0.69930000  1.0 0.0591743192
C  C110  1  0.20050000  0.25330000  0.72390000  1.0 -0.1897207342
C  C111  1  0.19640000  0.29580000  0.75590000  1.0 0.0491677694
C  C112  1  0.10570000  0.26130000  0.76280000  1.0 -0.1702630513
C  C113  1  0.02530000  0.19070000  0.73440000  1.0 0.0491677694
C  C114  1  0.69890000  0.56610000  0.82700000  1.0 0.0798857621
C  C115  1  0.60800000  0.54200000  0.83580000  1.0 -0.1993633904
C  C116  1  0.53760000  0.49620000  0.79790000  1.0 0.0407044004
C  C117  1  0.55480000  0.48280000  0.76250000  1.0 -0.1518208912
C  C118  1  0.64430000  0.51030000  0.76090000  1.0 0.0196313123
C  C119  1  0.38820000  0.60280000  0.93330000  1.0 0.0798857621
C  C120  1  0.40660000  0.56860000  0.90360000  1.0 -0.1897207342
C  C121  1  0.33520000  0.51340000  0.87050000  1.0 0.0591743192
C  C122  1  0.26040000  0.51000000  0.86520000  1.0 -0.1518208912
C  C123  1  0.25000000  0.55260000  0.88880000  1.0 -0.0070300457
C  C124  1  0.28550000  0.37430000  0.78170000  1.0 0.3129142517
C  C125  1  0.44170000  0.46630000  0.80440000  1.0 0.3513565703
C  C126  1  0.34840000  0.47600000  0.83510000  1.0 0.3335700526
C  C127  1  0.42510000  0.86090000  0.94390000  1.0 0.0591743192
C  C128  1  0.50800000  0.95180000  0.93710000  1.0 -0.1993633904
C  C129  1  0.58740000  0.98940000  0.96480000  1.0 0.0491677694
C  C130  1  0.57710000  0.92230000  0.00040000  1.0 -0.1816032071
C  C131  1  0.48740000  0.82720000  0.00020000  1.0 0.0491677694
C  C132  1  0.96360000  0.19020000  0.09850000  1.0 0.0122978031
C  C133  1  0.89650000  0.16790000  0.06660000  1.0 -0.1518208912
C  C134  1  0.90190000  0.23450000  0.04070000  1.0 0.0407044004
C  C135  1  0.98460000  0.32880000  0.04580000  1.0 -0.1816032071
C  C136  1  0.05420000  0.35320000  0.08070000  1.0 0.0122978031
C  C137  1  0.87730000  0.49130000  0.87930000  1.0 0.0196313123
C  C138  1  0.86520000  0.42040000  0.91200000  1.0 -0.1518208912
C  C139  1  0.78310000  0.32470000  0.90530000  1.0 0.0407044004
C  C140  1  0.71690000  0.30170000  0.86820000  1.0 -0.1897207342
C  C141  1  0.73600000  0.38020000  0.84060000  1.0 0.0702798473
C  C142  1  0.67850000  0.09110000  0.96680000  1.0 0.3414717162
C  C143  1  0.82640000  0.20780000  0.00010000  1.0 0.3606777856
C  C144  1  0.76840000  0.24960000  0.94020000  1.0 0.3606777856
I  I1  1  0.46163000  0.23597000  0.80330000  1.0 -0.1095089322
I  I2  1  0.28650000  0.23810000  0.88990000  1.0 -0.0410625035
I  I3  1  0.42740000  0.74520000  0.78700000  1.0 0.0491677694
I  I4  1  0.24060000  0.50440000  0.69430000  1.0 -0.0410625035
I  I5  1  0.07800000  0.61920000  0.54750000  1.0 -0.0244116058
I  I6  1  0.89200000  0.63840000  0.43943000  1.0 0.0024528982
I  I7  1  0.99142000  0.93198000  0.39060000  1.0 0.0196313123
I  I8  1  0.00220000  0.76260000  0.30260000  1.0 0.0122978031
I  I9  1  0.49980000  0.82220000  0.28500000  1.0 0.0122978031
I  I10  1  0.73570000  0.96090000  0.16680000  1.0 0.0491677694
I  I11  1  0.57700000  0.28200000  0.95450000  1.0 0.0196313123
I  I12  1  0.64610000  0.14610000  0.07030000  1.0 0.0491677694
I  I13  1  0.46290000  0.23230000  0.81430000  1.0 -0.0772254957
I  I14  1  0.27430000  0.23730000  0.88070000  1.0 -0.0299981294
I  I15  1  0.39040000  0.69660000  0.77770000  1.0 -0.0492089087
I  I16  1  0.25930000  0.49410000  0.66570000  1.0 0.031667318
I  I17  1  0.08490000  0.60010000  0.56700000  1.0 0.031667318
I  I18  1  0.93600000  0.65700000  0.44850000  1.0 -0.0492089087
I  I19  1  0.99850000  0.95390000  0.38370000  1.0 0.0196313123
I  I20  1  0.98440000  0.76520000  0.30410000  1.0 0.0122978031
I  I21  1  0.53430000  0.83450000  0.27830000  1.0 -0.0492089087
I  I22  1  0.73700000  0.98240000  0.17400000  1.0 0.0407044004
I  I23  1  0.58330000  0.32830000  0.94170000  1.0 0.0407044004
I  I24  1  0.61690000  0.15310000  0.04770000  1.0 0.0196313123
I  I25  1  0.23597000  0.46163000  0.19670000  1.0 -0.1095089322
I  I26  1  0.23810000  0.28650000  0.11010000  1.0 -0.0410625035
I  I27  1  0.74520000  0.42740000  0.21300000  1.0 0.0407044004
I  I28  1  0.50440000  0.24060000  0.30570000  1.0 -0.0410625035
I  I29  1  0.61920000  0.07800000  0.45250000  1.0 -0.0299981294
I  I30  1  0.63840000  0.89200000  0.56057000  1.0 0.0024528982
I  I31  1  0.93198000  0.99142000  0.60940000  1.0 0.0122978031
I  I32  1  0.76260000  0.00220000  0.69740000  1.0 0.0122978031
I  I33  1  0.82220000  0.49980000  0.71500000  1.0 0.0122978031
I  I34  1  0.96090000  0.73570000  0.83320000  1.0 0.0491677694
I  I35  1  0.28200000  0.57700000  0.04550000  1.0 0.0196313123
I  I36  1  0.14610000  0.64610000  0.92970000  1.0 0.0491677694
I  I37  1  0.23230000  0.46290000  0.18570000  1.0 -0.0772254957
I  I38  1  0.23730000  0.27430000  0.11930000  1.0 -0.0299981294
I  I39  1  0.69660000  0.39040000  0.22230000  1.0 -0.0492089087
I  I40  1  0.49410000  0.25930000  0.33430000  1.0 0.031667318
I  I41  1  0.60010000  0.08490000  0.43300000  1.0 0.031667318
I  I42  1  0.65700000  0.93600000  0.55150000  1.0 -0.0410625035
I  I43  1  0.95390000  0.99850000  0.61630000  1.0 0.0196313123
I  I44  1  0.76520000  0.98440000  0.69590000  1.0 0.0122978031
I  I45  1  0.83450000  0.53430000  0.72170000  1.0 -0.0492089087
I  I46  1  0.98240000  0.73700000  0.82600000  1.0 0.0407044004
I  I47  1  0.32830000  0.58330000  0.05830000  1.0 0.0407044004
I  I48  1  0.15310000  0.61690000  0.95230000  1.0 0.0196313123
N  N1  1  0.19640000  0.07420000  0.79830000  1.0 -0.2209992154
N  N2  1  0.51730000  0.68290000  0.70740000  1.0 -0.2778412258
N  N3  1  0.90760000  0.63660000  0.56620000  1.0 -0.2088463064
N  N4  1  0.85800000  0.82780000  0.72350000  1.0 -0.4828646487
N  N5  1  0.78900000  0.72340000  0.66300000  1.0 -0.4413300274
N  N6  1  0.95640000  0.82380000  0.68570000  1.0 -0.4212041354
N  N7  1  0.41440000  0.76160000  0.65800000  1.0 -0.2088463064
N  N8  1  0.80570000  0.43450000  0.52670000  1.0 -0.2209992154
N  N9  1  0.18640000  0.93940000  0.38860000  1.0 -0.1993633904
N  N10  1  0.54350000  0.07170000  0.56330000  1.0 -0.4413300274
N  N11  1  0.48260000  0.11380000  0.49690000  1.0 -0.4282806745
N  N12  1  0.39210000  0.94910000  0.52440000  1.0 -0.4413300274
N  N13  1  0.15800000  0.03380000  0.29720000  1.0 -0.2088463064
N  N14  1  0.55040000  0.71300000  0.20550000  1.0 -0.1993633904
N  N15  1  0.59920000  0.31680000  0.07320000  1.0 -0.2088463064
N  N16  1  0.40240000  0.36800000  0.22370000  1.0 -0.4212041354
N  N17  1  0.50630000  0.43970000  0.16570000  1.0 -0.4413300274
N  N18  1  0.40740000  0.26940000  0.18900000  1.0 -0.4282806745
N  N19  1  0.79630000  0.41530000  0.03080000  1.0 -0.1993633904
N  N20  1  0.28230000  0.04230000  0.88920000  1.0 -0.1816032071
N  N21  1  0.46850000  0.81250000  0.15640000  1.0 -0.1993633904
N  N22  1  0.11340000  0.74980000  0.00370000  1.0 -0.4212041354
N  N23  1  0.27900000  0.83800000  0.02630000  1.0 -0.4212041354
N  N24  1  0.15600000  0.68540000  0.06500000  1.0 -0.4577514237
N  N25  1  0.07420000  0.19640000  0.20170000  1.0 -0.2209992154
N  N26  1  0.68290000  0.51730000  0.29260000  1.0 -0.2778412258
N  N27  1  0.63660000  0.90760000  0.43380000  1.0 -0.2088463064
N  N28  1  0.82780000  0.85800000  0.27650000  1.0 -0.4828646487
N  N29  1  0.72340000  0.78900000  0.33700000  1.0 -0.4413300274
N  N30  1  0.82380000  0.95640000  0.31430000  1.0 -0.4212041354
N  N31  1  0.76160000  0.41440000  0.34200000  1.0 -0.2088463064
N  N32  1  0.43450000  0.80570000  0.47330000  1.0 -0.2209992154
N  N33  1  0.93940000  0.18640000  0.61140000  1.0 -0.1993633904
N  N34  1  0.07170000  0.54350000  0.43670000  1.0 -0.4413300274
N  N35  1  0.11380000  0.48260000  0.50310000  1.0 -0.4282806745
N  N36  1  0.94910000  0.39210000  0.47560000  1.0 -0.4413300274
N  N37  1  0.03380000  0.15800000  0.70280000  1.0 -0.1993633904
N  N38  1  0.71300000  0.55040000  0.79450000  1.0 -0.1993633904
N  N39  1  0.31680000  0.59920000  0.92680000  1.0 -0.2088463064
N  N40  1  0.36800000  0.40240000  0.77630000  1.0 -0.4212041354
N  N41  1  0.43970000  0.50630000  0.83430000  1.0 -0.4413300274
N  N42  1  0.26940000  0.40740000  0.81100000  1.0 -0.4282806745
N  N43  1  0.41530000  0.79630000  0.96920000  1.0 -0.1993633904
N  N44  1  0.04230000  0.28230000  0.11080000  1.0 -0.1816032071
N  N45  1  0.81250000  0.46850000  0.84360000  1.0 -0.1993633904
N  N46  1  0.74980000  0.11340000  0.99630000  1.0 -0.4212041354
N  N47  1  0.83800000  0.27900000  0.97370000  1.0 -0.4212041354
N  N48  1  0.68540000  0.15600000  0.93500000  1.0 -0.4577514237
