# DDEC6 charges by PACMAN v1.1 (https://github.com/mtap-research/PACMAN-charge/)
data_WUDZIG_FSR_pacman
_symmetry_space_group_name_H-M   'P 1'
_cell_length_a   18.94420000
_cell_length_b   18.94420000
_cell_length_c   31.53870000
_cell_angle_alpha   78.61220000
_cell_angle_beta   101.38800000
_cell_angle_gamma   133.64100000
_symmetry_Int_Tables_number   1
_chemical_formula_structural   Zn5H30C39(IN)12
_chemical_formula_sum   'Zn20 H120 C156 I48 N48'
_cell_volume   7999.91622609
_cell_formula_units_Z   4
loop_
 _symmetry_equiv_pos_site_id
 _symmetry_equiv_pos_as_xyz
  1  'x, y, z'
loop_
 _atom_site_type_symbol
 _atom_site_label
 _atom_site_symmetry_multiplicity
 _atom_site_fract_x
 _atom_site_fract_y
 _atom_site_fract_z
 _atom_site_occupancy
 _atom_site_charge
Zn  Zn1  1  0.45190000  0.79510000  0.47795000  1.0 0.1457304527
Zn  Zn2  1  0.79510000  0.45190000  0.52205000  1.0 0.1457304527
Zn  Zn3  1  0.30380000  0.46220000  0.65390000  1.0 0.3311438058
Zn  Zn4  1  0.46220000  0.30380000  0.34610000  1.0 0.3311438058
Zn  Zn5  1  0.74270000  0.08170000  0.98150000  1.0 0.2640176435
Zn  Zn6  1  0.08170000  0.74270000  0.01850000  1.0 0.2640176435
Zn  Zn7  1  0.07618000  0.22982000  0.15302000  1.0 0.1282188486
Zn  Zn8  1  0.22982000  0.07618000  0.84698000  1.0 0.1282188486
Zn  Zn9  1  0.98662000  0.73620000  0.30994000  1.0 0.3140370567
Zn  Zn10  1  0.73620000  0.98662000  0.69006000  1.0 0.3140370567
Zn  Zn11  1  0.80231000  0.54969000  0.81052000  1.0 0.3656149675
Zn  Zn12  1  0.54969000  0.80231000  0.18948000  1.0 0.3656149675
Zn  Zn13  1  0.43650000  0.81110000  0.46360000  1.0 0.1429299136
Zn  Zn14  1  0.81110000  0.43650000  0.53640000  1.0 0.1429299136
Zn  Zn15  1  0.29940000  0.46960000  0.65900000  1.0 0.3501118851
Zn  Zn16  1  0.46960000  0.29940000  0.34100000  1.0 0.3501118851
Zn  Zn17  1  0.73920000  0.09520000  0.97200000  1.0 0.2790388634
Zn  Zn18  1  0.09520000  0.73920000  0.02800000  1.0 0.2790388634
Zn  Zn19  1  0.05570000  0.23970000  0.16270000  1.0 0.1614567582
Zn  Zn20  1  0.23970000  0.05570000  0.83730000  1.0 0.1614567582
H  H1  1  0.58670000  0.78870000  0.45640000  1.0 0.0916419868
H  H2  1  0.78870000  0.58670000  0.54360000  1.0 0.0916419868
H  H3  1  0.60380000  0.71760000  0.40990000  1.0 0.0978076452
H  H4  1  0.71760000  0.60380000  0.59010000  1.0 0.0978076452
H  H5  1  0.35960000  0.64400000  0.33830000  1.0 0.1282188486
H  H6  1  0.64400000  0.35960000  0.66170000  1.0 0.1282188486
H  H7  1  0.35050000  0.70710000  0.38950000  1.0 0.070535532
H  H8  1  0.70710000  0.35050000  0.61050000  1.0 0.070535532
H  H9  1  0.88080000  0.74100000  0.36480000  1.0 0.070535532
H  H10  1  0.74100000  0.88080000  0.63520000  1.0 0.070535532
H  H11  1  0.73640000  0.69760000  0.36830000  1.0 0.1282188486
H  H12  1  0.69760000  0.73640000  0.63170000  1.0 0.1282188486
H  H13  1  0.65630000  0.61110000  0.24790000  1.0 0.1213911005
H  H14  1  0.61110000  0.65630000  0.75210000  1.0 0.1213911005
H  H15  1  0.80390000  0.64970000  0.24890000  1.0 0.0594865252
H  H16  1  0.64970000  0.80390000  0.75110000  1.0 0.0594865252
H  H17  1  0.27210000  0.31130000  0.18990000  1.0 0.0791326175
H  H18  1  0.31130000  0.27210000  0.81010000  1.0 0.0791326175
H  H19  1  0.40870000  0.42730000  0.23320000  1.0 0.1213911005
H  H20  1  0.42730000  0.40870000  0.76680000  1.0 0.1213911005
H  H21  1  0.24970000  0.47070000  0.26810000  1.0 0.1282188486
H  H22  1  0.47070000  0.24970000  0.73190000  1.0 0.1282188486
H  H23  1  0.12360000  0.35700000  0.21950000  1.0 0.070535532
H  H24  1  0.35700000  0.12360000  0.78050000  1.0 0.070535532
H  H25  1  0.08060000  0.71820000  0.39670000  1.0 0.0594865252
H  H26  1  0.71820000  0.08060000  0.60330000  1.0 0.0594865252
H  H27  1  0.06280000  0.59860000  0.44390000  1.0 0.0978076452
H  H28  1  0.59860000  0.06280000  0.55610000  1.0 0.0978076452
H  H29  1  0.81500000  0.39420000  0.37330000  1.0 0.1094696355
H  H30  1  0.39420000  0.81500000  0.62670000  1.0 0.1094696355
H  H31  1  0.84090000  0.51890000  0.32470000  1.0 0.070535532
H  H32  1  0.51890000  0.84090000  0.67530000  1.0 0.070535532
H  H33  1  0.26630000  0.57310000  0.58420000  1.0 0.0594865252
H  H34  1  0.57310000  0.26630000  0.41580000  1.0 0.0594865252
H  H35  1  0.14680000  0.53760000  0.52730000  1.0 0.1094696355
H  H36  1  0.53760000  0.14680000  0.47270000  1.0 0.1094696355
H  H37  1  0.98470000  0.25210000  0.56600000  1.0 0.0978076452
H  H38  1  0.25210000  0.98470000  0.43400000  1.0 0.0978076452
H  H39  1  0.12030000  0.29550000  0.61280000  1.0 0.070535532
H  H40  1  0.29550000  0.12030000  0.38720000  1.0 0.070535532
H  H41  1  0.65310000  0.93150000  0.51520000  1.0 0.070535532
H  H42  1  0.93150000  0.65310000  0.48480000  1.0 0.070535532
H  H43  1  0.79500000  0.09080000  0.51250000  1.0 0.1213911005
H  H44  1  0.09080000  0.79500000  0.48750000  1.0 0.1213911005
H  H45  1  0.65810000  0.15510000  0.42320000  1.0 0.1213911005
H  H46  1  0.15510000  0.65810000  0.57680000  1.0 0.1213911005
H  H47  1  0.51750000  0.98190000  0.42690000  1.0 0.0594865252
H  H48  1  0.98190000  0.51750000  0.57310000  1.0 0.0594865252
H  H49  1  0.17780000  0.41740000  0.72100000  1.0 0.070535532
H  H50  1  0.41740000  0.17780000  0.27900000  1.0 0.070535532
H  H51  1  0.05800000  0.28460000  0.76720000  1.0 0.1282188486
H  H52  1  0.28460000  0.05800000  0.23280000  1.0 0.1282188486
H  H53  1  0.11360000  0.12880000  0.73470000  1.0 0.1213911005
H  H54  1  0.12880000  0.11360000  0.26530000  1.0 0.1213911005
H  H55  1  0.22630000  0.26030000  0.68840000  1.0 0.070535532
H  H56  1  0.26030000  0.22630000  0.31160000  1.0 0.070535532
H  H57  1  0.77060000  0.96180000  0.96210000  1.0 0.070535532
H  H58  1  0.96180000  0.77060000  0.03790000  1.0 0.070535532
H  H59  1  0.83800000  0.94720000  0.91480000  1.0 0.1282188486
H  H60  1  0.94720000  0.83800000  0.08520000  1.0 0.1282188486
H  H61  1  0.87730000  0.16230000  0.83620000  1.0 0.1213911005
H  H62  1  0.16230000  0.87730000  0.16380000  1.0 0.1213911005
H  H63  1  0.81290000  0.17550000  0.88740000  1.0 0.0594865252
H  H64  1  0.17550000  0.81290000  0.11260000  1.0 0.0594865252
H  H65  1  0.87450000  0.72930000  0.74970000  1.0 0.0791326175
H  H66  1  0.72930000  0.87450000  0.25030000  1.0 0.0791326175
H  H67  1  0.92580000  0.88000000  0.74910000  1.0 0.1213911005
H  H68  1  0.88000000  0.92580000  0.25090000  1.0 0.1213911005
H  H69  1  0.84020000  0.80000000  0.86880000  1.0 0.1213911005
H  H70  1  0.80000000  0.84020000  0.13120000  1.0 0.1213911005
H  H71  1  0.78570000  0.64790000  0.86300000  1.0 0.070535532
H  H72  1  0.64790000  0.78570000  0.13700000  1.0 0.070535532
H  H73  1  0.82020000  0.45620000  0.89650000  1.0 0.0594865252
H  H74  1  0.45620000  0.82020000  0.10350000  1.0 0.0594865252
H  H75  1  0.94040000  0.47700000  0.94630000  1.0 0.0978076452
H  H76  1  0.47700000  0.94040000  0.05370000  1.0 0.0978076452
H  H77  1  0.14350000  0.72750000  0.87560000  1.0 0.1094696355
H  H78  1  0.72750000  0.14350000  0.12440000  1.0 0.1094696355
H  H79  1  0.01550000  0.69150000  0.82650000  1.0 0.070535532
H  H80  1  0.69150000  0.01550000  0.17350000  1.0 0.070535532
H  H81  1  0.54440000  0.01360000  0.92650000  1.0 0.070535532
H  H82  1  0.01360000  0.54440000  0.07350000  1.0 0.070535532
H  H83  1  0.38610000  0.87010000  0.91950000  1.0 0.1282188486
H  H84  1  0.87010000  0.38610000  0.08050000  1.0 0.1282188486
H  H85  1  0.44510000  0.74250000  0.01670000  1.0 0.1213911005
H  H86  1  0.74250000  0.44510000  0.98330000  1.0 0.1213911005
H  H87  1  0.60790000  0.88630000  0.01900000  1.0 0.0594865252
H  H88  1  0.88630000  0.60790000  0.98100000  1.0 0.0594865252
H  H89  1  0.96300000  0.28260000  0.09080000  1.0 0.070535532
H  H90  1  0.28260000  0.96300000  0.90920000  1.0 0.070535532
H  H91  1  0.99580000  0.38860000  0.03090000  1.0 0.1094696355
H  H92  1  0.38860000  0.99580000  0.96910000  1.0 0.1094696355
H  H93  1  0.28330000  0.53850000  0.06270000  1.0 0.0978076452
H  H94  1  0.53850000  0.28330000  0.93730000  1.0 0.0978076452
H  H95  1  0.23840000  0.43000000  0.12300000  1.0 0.070535532
H  H96  1  0.43000000  0.23840000  0.87700000  1.0 0.070535532
H  H97  1  0.58790000  0.55110000  0.44880000  1.0 0.0493980568
H  H98  1  0.55110000  0.58790000  0.55120000  1.0 0.0493980568
H  H99  1  0.50100000  0.52840000  0.46790000  1.0 0.070535532
H  H100  1  0.52840000  0.50100000  0.53210000  1.0 0.070535532
H  H101  1  0.47870000  0.61150000  0.48920000  1.0 0.0594865252
H  H102  1  0.61150000  0.47870000  0.51080000  1.0 0.0594865252
H  H103  1  0.40300000  0.49640000  0.50290000  1.0 0.0978076452
H  H104  1  0.49640000  0.40300000  0.49710000  1.0 0.0978076452
H  H105  1  0.43090000  0.46270000  0.44680000  1.0 0.0493980568
H  H106  1  0.46270000  0.43090000  0.55320000  1.0 0.0493980568
H  H107  1  0.42780000  0.54460000  0.42580000  1.0 0.0916419868
H  H108  1  0.54460000  0.42780000  0.57420000  1.0 0.0916419868
H  H109  1  0.60380000  0.52280000  0.47480000  1.0 0.0418464674
H  H110  1  0.52280000  0.60380000  0.52520000  1.0 0.0418464674
H  H111  1  0.69870000  0.62810000  0.45530000  1.0 0.0418464674
H  H112  1  0.62810000  0.69870000  0.54470000  1.0 0.0418464674
H  H113  1  0.56110000  0.57230000  0.40390000  1.0 0.0594865252
H  H114  1  0.57230000  0.56110000  0.59610000  1.0 0.0594865252
H  H115  1  0.59700000  0.66440000  0.42450000  1.0 0.0418464674
H  H116  1  0.66440000  0.59700000  0.57550000  1.0 0.0418464674
H  H117  1  0.66420000  0.70240000  0.49500000  1.0 0.0493980568
H  H118  1  0.70240000  0.66420000  0.50500000  1.0 0.0493980568
H  H119  1  0.69930000  0.65210000  0.52690000  1.0 0.0493980568
H  H120  1  0.65210000  0.69930000  0.47310000  1.0 0.0493980568
C  C1  1  0.53830000  0.75570000  0.43280000  1.0 0.0418464674
C  C2  1  0.75570000  0.53830000  0.56720000  1.0 0.0418464674
C  C3  1  0.55180000  0.71620000  0.40430000  1.0 -0.1595833357
C  C4  1  0.71620000  0.55180000  0.59570000  1.0 -0.1595833357
C  C5  1  0.48560000  0.67580000  0.36870000  1.0 0.0493980568
C  C6  1  0.67580000  0.48560000  0.63130000  1.0 0.0493980568
C  C7  1  0.40690000  0.67170000  0.36250000  1.0 -0.1445507015
C  C8  1  0.67170000  0.40690000  0.63750000  1.0 -0.1445507015
C  C9  1  0.40310000  0.70950000  0.39320000  1.0 0.0200976991
C  C10  1  0.70950000  0.40310000  0.60680000  1.0 0.0200976991
C  C11  1  0.83410000  0.71390000  0.34040000  1.0 0.0493980568
C  C12  1  0.71390000  0.83410000  0.65960000  1.0 0.0493980568
C  C13  1  0.74940000  0.69060000  0.34260000  1.0 -0.1912758991
C  C14  1  0.69060000  0.74940000  0.65740000  1.0 -0.1912758991
C  C15  1  0.68190000  0.65610000  0.30690000  1.0 0.0493980568
C  C16  1  0.65610000  0.68190000  0.69310000  1.0 0.0493980568
C  C17  1  0.70290000  0.63910000  0.27240000  1.0 -0.1703371282
C  C18  1  0.63910000  0.70290000  0.72760000  1.0 -0.1703371282
C  C19  1  0.79120000  0.66220000  0.27270000  1.0 0.0493980568
C  C20  1  0.66220000  0.79120000  0.72730000  1.0 0.0493980568
C  C21  1  0.26780000  0.34600000  0.20560000  1.0 0.0418464674
C  C22  1  0.34600000  0.26780000  0.79440000  1.0 0.0418464674
C  C23  1  0.35030000  0.41490000  0.23170000  1.0 -0.1703371282
C  C24  1  0.41490000  0.35030000  0.76830000  1.0 -0.1703371282
C  C25  1  0.34520000  0.46320000  0.25450000  1.0 0.0418464674
C  C26  1  0.46320000  0.34520000  0.74550000  1.0 0.0418464674
C  C27  1  0.25830000  0.44070000  0.25150000  1.0 -0.1595833357
C  C28  1  0.44070000  0.25830000  0.74850000  1.0 -0.1595833357
C  C29  1  0.49590000  0.63550000  0.33800000  1.0 0.3410500407
C  C30  1  0.63550000  0.49590000  0.66200000  1.0 0.3410500407
C  C31  1  0.18290000  0.37090000  0.22280000  1.0 0.0594865252
C  C32  1  0.37090000  0.18290000  0.77720000  1.0 0.0594865252
C  C33  1  0.58730000  0.62790000  0.30780000  1.0 0.3311438058
C  C34  1  0.62790000  0.58730000  0.69220000  1.0 0.3311438058
C  C35  1  0.43000000  0.53860000  0.28350000  1.0 0.3311438058
C  C36  1  0.53860000  0.43000000  0.71650000  1.0 0.3311438058
C  C37  1  0.02730000  0.65130000  0.39140000  1.0 0.0200976991
C  C38  1  0.65130000  0.02730000  0.60860000  1.0 0.0200976991
C  C39  1  0.01580000  0.58100000  0.41990000  1.0 -0.1476023513
C  C40  1  0.58100000  0.01580000  0.58010000  1.0 -0.1476023513
C  C41  1  0.93630000  0.48470000  0.41390000  1.0 0.0418464674
C  C42  1  0.48470000  0.93630000  0.58610000  1.0 0.0418464674
C  C43  1  0.87050000  0.46070000  0.37810000  1.0 -0.1703371282
C  C44  1  0.46070000  0.87050000  0.62190000  1.0 -0.1703371282
C  C45  1  0.88660000  0.53540000  0.34920000  1.0 0.0594865252
C  C46  1  0.53540000  0.88660000  0.65080000  1.0 0.0594865252
C  C47  1  0.20820000  0.50680000  0.58040000  1.0 0.0418464674
C  C48  1  0.50680000  0.20820000  0.41960000  1.0 0.0418464674
C  C49  1  0.13770000  0.48610000  0.54570000  1.0 -0.1595833357
C  C50  1  0.48610000  0.13770000  0.45430000  1.0 -0.1595833357
C  C51  1  0.05740000  0.39180000  0.53940000  1.0 0.0594865252
C  C52  1  0.39180000  0.05740000  0.46060000  1.0 0.0594865252
C  C53  1  0.04440000  0.31860000  0.56750000  1.0 -0.1476023513
C  C54  1  0.31860000  0.04440000  0.43250000  1.0 -0.1476023513
C  C55  1  0.12100000  0.34480000  0.59810000  1.0 0.0287959595
C  C56  1  0.34480000  0.12100000  0.40190000  1.0 0.0287959595
C  C57  1  0.65420000  0.97760000  0.49580000  1.0 0.0418464674
C  C58  1  0.97760000  0.65420000  0.50420000  1.0 0.0418464674
C  C59  1  0.73910000  0.07270000  0.49440000  1.0 -0.1703371282
C  C60  1  0.07270000  0.73910000  0.50560000  1.0 -0.1703371282
C  C61  1  0.74620000  0.14260000  0.46780000  1.0 0.0594865252
C  C62  1  0.14260000  0.74620000  0.53220000  1.0 0.0594865252
C  C63  1  0.66010000  0.11050000  0.44190000  1.0 -0.1809518559
C  C64  1  0.11050000  0.66010000  0.55810000  1.0 -0.1809518559
C  C65  1  0.57510000  0.00630000  0.44540000  1.0 0.070535532
C  C66  1  0.00630000  0.57510000  0.55460000  1.0 0.070535532
C  C67  1  0.92240000  0.40680000  0.44520000  1.0 0.3410500407
C  C68  1  0.40680000  0.92240000  0.55480000  1.0 0.3410500407
C  C69  1  0.98100000  0.36440000  0.50340000  1.0 0.3501118851
C  C70  1  0.36440000  0.98100000  0.49660000  1.0 0.3501118851
C  C71  1  0.83620000  0.24940000  0.46780000  1.0 0.3311438058
C  C72  1  0.24940000  0.83620000  0.53220000  1.0 0.3311438058
C  C73  1  0.16290000  0.35750000  0.72370000  1.0 0.0493980568
C  C74  1  0.35750000  0.16290000  0.27630000  1.0 0.0493980568
C  C75  1  0.09170000  0.27890000  0.75160000  1.0 -0.1703371282
C  C76  1  0.27890000  0.09170000  0.24840000  1.0 -0.1703371282
C  C77  1  0.07250000  0.19250000  0.75530000  1.0 0.0493980568
C  C78  1  0.19250000  0.07250000  0.24470000  1.0 0.0493980568
C  C79  1  0.12520000  0.18700000  0.73160000  1.0 -0.1703371282
C  C80  1  0.18700000  0.12520000  0.26840000  1.0 -0.1703371282
C  C81  1  0.19230000  0.26470000  0.70450000  1.0 -0.0043384501
C  C82  1  0.26470000  0.19230000  0.29550000  1.0 -0.0043384501
C  C83  1  0.79550000  0.00570000  0.93670000  1.0 0.0493980568
C  C84  1  0.00570000  0.79550000  0.06330000  1.0 0.0493980568
C  C85  1  0.83410000  0.99550000  0.90810000  1.0 -0.1595833357
C  C86  1  0.99550000  0.83410000  0.09190000  1.0 -0.1595833357
C  C87  1  0.86600000  0.05380000  0.87090000  1.0 0.0493980568
C  C88  1  0.05380000  0.86600000  0.12910000  1.0 0.0493980568
C  C89  1  0.85760000  0.12100000  0.86260000  1.0 -0.1595833357
C  C90  1  0.12100000  0.85760000  0.13740000  1.0 -0.1595833357
C  C91  1  0.81920000  0.12880000  0.89340000  1.0 0.0594865252
C  C92  1  0.12880000  0.81920000  0.10660000  1.0 0.0594865252
C  C93  1  0.86790000  0.74450000  0.77480000  1.0 0.0594865252
C  C94  1  0.74450000  0.86790000  0.22520000  1.0 0.0594865252
C  C95  1  0.89590000  0.83330000  0.77340000  1.0 -0.1703371282
C  C96  1  0.83330000  0.89590000  0.22660000  1.0 -0.1703371282
C  C97  1  0.88010000  0.85310000  0.80700000  1.0 0.0418464674
C  C98  1  0.85310000  0.88010000  0.19300000  1.0 0.0418464674
C  C99  1  0.84560000  0.78640000  0.84280000  1.0 -0.1703371282
C  C100  1  0.78640000  0.84560000  0.15720000  1.0 -0.1703371282
C  C101  1  0.81780000  0.69780000  0.83990000  1.0 0.0594865252
C  C102  1  0.69780000  0.81780000  0.16010000  1.0 0.0594865252
C  C103  1  0.99590000  0.10470000  0.78330000  1.0 0.3311438058
C  C104  1  0.10470000  0.99590000  0.21670000  1.0 0.3311438058
C  C105  1  0.90460000  0.04260000  0.83840000  1.0 0.3311438058
C  C106  1  0.04260000  0.90460000  0.16160000  1.0 0.3311438058
C  C107  1  0.90820000  0.94800000  0.80830000  1.0 0.3410500407
C  C108  1  0.94800000  0.90820000  0.19170000  1.0 0.3410500407
C  C109  1  0.88720000  0.51120000  0.89200000  1.0 0.0287959595
C  C110  1  0.51120000  0.88720000  0.10800000  1.0 0.0287959595
C  C111  1  0.95830000  0.52330000  0.92190000  1.0 -0.1595833357
C  C112  1  0.52330000  0.95830000  0.07810000  1.0 -0.1595833357
C  C113  1  0.05680000  0.60420000  0.91570000  1.0 0.0493980568
C  C114  1  0.60420000  0.05680000  0.08430000  1.0 0.0418464674
C  C115  1  0.07780000  0.66940000  0.88040000  1.0 -0.1809518559
C  C116  1  0.66940000  0.07780000  0.11960000  1.0 -0.1809518559
C  C117  1  0.00000000  0.64800000  0.85190000  1.0 0.0791326175
C  C118  1  0.64800000  0.00000000  0.14810000  1.0 0.0791326175
C  C119  1  0.52530000  0.95710000  0.94440000  1.0 0.0493980568
C  C120  1  0.95710000  0.52530000  0.05560000  1.0 0.0493980568
C  C121  1  0.43010000  0.87270000  0.94140000  1.0 -0.1703371282
C  C122  1  0.87270000  0.43010000  0.05860000  1.0 -0.1703371282
C  C123  1  0.39610000  0.79270000  0.96800000  1.0 0.0493980568
C  C124  1  0.79270000  0.39610000  0.03200000  1.0 0.0493980568
C  C125  1  0.46520000  0.79800000  0.99750000  1.0 -0.1595833357
C  C126  1  0.79800000  0.46520000  0.00250000  1.0 -0.1595833357
C  C127  1  0.56170000  0.88330000  0.99870000  1.0 0.0122707152
C  C128  1  0.88330000  0.56170000  0.00130000  1.0 0.0122707152
C  C129  1  0.02870000  0.33410000  0.08360000  1.0 -0.0043384501
C  C130  1  0.33410000  0.02870000  0.91640000  1.0 -0.0043384501
C  C131  1  0.04800000  0.39820000  0.04890000  1.0 -0.1809518559
C  C132  1  0.39820000  0.04800000  0.95110000  1.0 -0.1809518559
C  C133  1  0.14572000  0.47908000  0.03960000  1.0 0.070535532
C  C134  1  0.47908000  0.14572000  0.96040000  1.0 0.070535532
C  C135  1  0.21590000  0.48650000  0.06750000  1.0 -0.1809518559
C  C136  1  0.48650000  0.21590000  0.93250000  1.0 -0.1809518559
C  C137  1  0.13430000  0.61650000  0.94630000  1.0 0.3501118851
C  C138  1  0.61650000  0.13430000  0.05370000  1.0 0.3501118851
C  C139  1  0.18860000  0.41880000  0.10220000  1.0 0.0594865252
C  C140  1  0.41880000  0.18860000  0.89780000  1.0 0.0594865252
C  C141  1  0.29220000  0.70140000  0.96970000  1.0 0.3182648142
C  C142  1  0.70140000  0.29220000  0.03030000  1.0 0.3182648142
C  C143  1  0.17450000  0.55570000  0.00310000  1.0 0.3501118851
C  C144  1  0.55570000  0.17450000  0.99690000  1.0 0.3501118851
C  C145  1  0.54700000  0.56500000  0.52440000  1.0 -0.0278503023
C  C146  1  0.56500000  0.54700000  0.47560000  1.0 -0.0278503023
C  C147  1  0.46800000  0.55200000  0.49200000  1.0 -0.2506774049
C  C148  1  0.55200000  0.46800000  0.50800000  1.0 -0.2506774049
C  C149  1  0.46600000  0.53200000  0.44700000  1.0 -0.1809518559
C  C150  1  0.53200000  0.46600000  0.55300000  1.0 -0.1809518559
C  C151  1  0.63500000  0.59100000  0.46600000  1.0 -0.1036132406
C  C152  1  0.59100000  0.63500000  0.53400000  1.0 -0.1036132406
C  C153  1  0.56800000  0.59600000  0.43100000  1.0 -0.1595833357
C  C154  1  0.59600000  0.56800000  0.56900000  1.0 -0.1595833357
C  C155  1  0.64700000  0.63900000  0.50500000  1.0 -0.1146631669
C  C156  1  0.63900000  0.64700000  0.49500000  1.0 -0.1146631669
I  I1  1  0.29951000  0.76669000  0.45412000  1.0 -0.049663592
I  I2  1  0.76669000  0.29951000  0.54588000  1.0 -0.049663592
I  I3  1  0.47764000  0.72956000  0.55206000  1.0 0.0018543639
I  I4  1  0.72956000  0.47764000  0.44794000  1.0 0.0018543639
I  I5  1  0.99810000  0.71330000  0.24190000  1.0 -0.0200034609
I  I6  1  0.71330000  0.99810000  0.75810000  1.0 -0.0200034609
I  I7  1  0.11650000  0.90390000  0.34840000  1.0 0.0791326175
I  I8  1  0.90390000  0.11650000  0.65160000  1.0 0.0791326175
I  I9  1  0.39470000  0.62110000  0.68350000  1.0 -0.070044672
I  I10  1  0.62110000  0.39470000  0.31650000  1.0 -0.070044672
I  I11  1  0.38310000  0.41850000  0.62128000  1.0 0.0122707152
I  I12  1  0.41850000  0.38310000  0.37872000  1.0 0.0122707152
I  I13  1  0.81000000  0.05500000  0.05359000  1.0 0.0200976991
I  I14  1  0.05500000  0.81000000  0.94641000  1.0 0.0200976991
I  I15  1  0.77670000  0.23750000  0.95698000  1.0 -0.0200034609
I  I16  1  0.23750000  0.77670000  0.04302000  1.0 -0.0200034609
I  I17  1  0.83450000  0.53710000  0.74050000  1.0 -0.4118039886
I  I18  1  0.53710000  0.83450000  0.25950000  1.0 -0.4118039886
I  I19  1  0.63344000  0.41916000  0.85186000  1.0 0.0594865252
I  I20  1  0.41916000  0.63344000  0.14814000  1.0 0.0594865252
I  I21  1  0.92108000  0.14186000  0.18699000  1.0 -0.049663592
I  I22  1  0.14186000  0.92108000  0.81301000  1.0 -0.049663592
I  I23  1  0.11861000  0.15219000  0.12038000  1.0 0.0287959595
I  I24  1  0.15219000  0.11861000  0.87962000  1.0 0.0287959595
I  I25  1  0.29760000  0.79820000  0.43320000  1.0 0.0200976991
I  I26  1  0.79820000  0.29760000  0.56680000  1.0 0.0200976991
I  I27  1  0.43700000  0.72560000  0.54120000  1.0 -0.0200034609
I  I28  1  0.72560000  0.43700000  0.45880000  1.0 -0.0200034609
I  I29  1  0.98630000  0.68730000  0.23450000  1.0 0.0287959595
I  I30  1  0.68730000  0.98630000  0.76550000  1.0 0.0287959595
I  I31  1  0.11910000  0.88970000  0.33890000  1.0 0.0418464674
I  I32  1  0.88970000  0.11910000  0.66110000  1.0 0.0418464674
I  I33  1  0.37280000  0.62260000  0.69280000  1.0 -0.0200034609
I  I34  1  0.62260000  0.37280000  0.30720000  1.0 -0.0200034609
I  I35  1  0.39030000  0.44310000  0.62910000  1.0 -0.0200034609
I  I36  1  0.44310000  0.39030000  0.37090000  1.0 -0.0200034609
I  I37  1  0.81290000  0.08830000  0.04770000  1.0 -0.0278503023
I  I38  1  0.08830000  0.81290000  0.95230000  1.0 -0.0278503023
I  I39  1  0.75100000  0.23800000  0.94240000  1.0 0.0287959595
I  I40  1  0.23800000  0.75100000  0.05760000  1.0 0.0287959595
I  I41  1  0.64767000  0.40749000  0.83463000  1.0 -0.0043384501
I  I42  1  0.40749000  0.64767000  0.16537000  1.0 -0.0043384501
I  I43  1  0.84430000  0.55170000  0.73790000  1.0 -0.4313262284
I  I44  1  0.55170000  0.84430000  0.26210000  1.0 -0.4313262284
I  I45  1  0.90830000  0.17370000  0.19668000  1.0 0.0200976991
I  I46  1  0.17370000  0.90830000  0.80332000  1.0 0.0200976991
I  I47  1  0.07750000  0.14210000  0.13250000  1.0 -0.0565472226
I  I48  1  0.14210000  0.07750000  0.86750000  1.0 -0.0565472226
N  N1  1  0.46670000  0.75030000  0.42880000  1.0 -0.1991718019
N  N2  1  0.75030000  0.46670000  0.57120000  1.0 -0.1991718019
N  N3  1  0.85750000  0.70230000  0.30740000  1.0 -0.2229005153
N  N4  1  0.70230000  0.85750000  0.69260000  1.0 -0.2229005153
N  N5  1  0.18670000  0.32490000  0.20080000  1.0 -0.1912758991
N  N6  1  0.32490000  0.18670000  0.79920000  1.0 -0.1809518559
N  N7  1  0.58290000  0.66510000  0.33770000  1.0 -0.4118039886
N  N8  1  0.66510000  0.58290000  0.66230000  1.0 -0.4118039886
N  N9  1  0.51560000  0.56760000  0.27880000  1.0 -0.4313262284
N  N10  1  0.56760000  0.51560000  0.72120000  1.0 -0.4313262284
N  N11  1  0.41630000  0.57150000  0.31180000  1.0 -0.4224957804
N  N12  1  0.57150000  0.41630000  0.68820000  1.0 -0.4224957804
N  N13  1  0.96370000  0.62850000  0.35490000  1.0 -0.1991718019
N  N14  1  0.62850000  0.96370000  0.64510000  1.0 -0.1991718019
N  N15  1  0.19640000  0.43840000  0.60740000  1.0 -0.2077228855
N  N16  1  0.43840000  0.19640000  0.39260000  1.0 -0.2077228855
N  N17  1  0.57460000  0.94600000  0.47210000  1.0 -0.1912758991
N  N18  1  0.94600000  0.57460000  0.52790000  1.0 -0.1912758991
N  N19  1  0.99460000  0.43800000  0.47780000  1.0 -0.4395587524
N  N20  1  0.43800000  0.99460000  0.52220000  1.0 -0.4395587524
N  N21  1  0.90430000  0.26870000  0.50000000  1.0 -0.4485951792
N  N22  1  0.26870000  0.90430000  0.50000000  1.0 -0.4485951792
N  N23  1  0.84060000  0.31240000  0.43870000  1.0 -0.4395587524
N  N24  1  0.31240000  0.84060000  0.56130000  1.0 -0.4395587524
N  N25  1  0.21040000  0.35080000  0.70060000  1.0 -0.2422944139
N  N26  1  0.35080000  0.21040000  0.29940000  1.0 -0.2422944139
N  N27  1  0.79200000  0.07380000  0.93010000  1.0 -0.1809518559
N  N28  1  0.07380000  0.79200000  0.06990000  1.0 -0.1809518559
N  N29  1  0.83370000  0.67990000  0.80740000  1.0 -0.2077228855
N  N30  1  0.67990000  0.83370000  0.19260000  1.0 -0.2077228855
N  N31  1  0.96570000  0.11990000  0.81060000  1.0 -0.4313262284
N  N32  1  0.11990000  0.96570000  0.18940000  1.0 -0.4313262284
N  N33  1  0.87550000  0.95510000  0.83920000  1.0 -0.4224957804
N  N34  1  0.95510000  0.87550000  0.16080000  1.0 -0.4224957804
N  N35  1  0.96780000  0.02020000  0.77910000  1.0 -0.4485951792
N  N36  1  0.02020000  0.96780000  0.22090000  1.0 -0.4485951792
N  N37  1  0.90910000  0.57430000  0.85710000  1.0 -0.1912758991
N  N38  1  0.57430000  0.90910000  0.14290000  1.0 -0.1912758991
N  N39  1  0.59310000  0.96450000  0.97140000  1.0 -0.2229005153
N  N40  1  0.96450000  0.59310000  0.02860000  1.0 -0.2229005153
N  N41  1  0.09880000  0.34040000  0.10830000  1.0 -0.1703371282
N  N42  1  0.34040000  0.09880000  0.89170000  1.0 -0.1703371282
N  N43  1  0.22620000  0.69560000  0.94100000  1.0 -0.4224957804
N  N44  1  0.69560000  0.22620000  0.05900000  1.0 -0.4224957804
N  N45  1  0.26830000  0.62990000  0.99960000  1.0 -0.4224957804
N  N46  1  0.62990000  0.26830000  0.00040000  1.0 -0.4224957804
N  N47  1  0.10290000  0.54490000  0.97760000  1.0 -0.4395587524
N  N48  1  0.54490000  0.10290000  0.02240000  1.0 -0.4395587524
