# DDEC6 charges by PACMAN v1.1 (https://github.com/mtap-research/PACMAN-charge/)
data_WUFXAY_FSR_pacman
_symmetry_space_group_name_H-M   'P 1'
_cell_length_a   16.08600000
_cell_length_b   16.08600000
_cell_length_c   16.08600000
_cell_angle_alpha   117.82200000
_cell_angle_beta   117.82200000
_cell_angle_gamma   117.82200000
_symmetry_Int_Tables_number   1
_chemical_formula_structural   FeH15C10SN2O3
_chemical_formula_sum   'Fe6 H90 C60 S6 N12 O18'
_cell_volume   1574.92205104
_cell_formula_units_Z   6
loop_
 _symmetry_equiv_pos_site_id
 _symmetry_equiv_pos_as_xyz
  1  'x, y, z'
loop_
 _atom_site_type_symbol
 _atom_site_label
 _atom_site_symmetry_multiplicity
 _atom_site_fract_x
 _atom_site_fract_y
 _atom_site_fract_z
 _atom_site_occupancy
 _atom_site_charge
Fe  Fe1  1  0.24584000  0.98829000  0.57742000  1.0 0.7707010688
Fe  Fe2  1  0.98829000  0.57742000  0.24584000  1.0 0.7707010688
Fe  Fe3  1  0.57742000  0.24584000  0.98829000  1.0 0.7707010688
Fe  Fe4  1  0.75416000  0.01171000  0.42258000  1.0 0.7707010688
Fe  Fe5  1  0.01171000  0.42258000  0.75416000  1.0 0.7707010688
Fe  Fe6  1  0.42258000  0.75416000  0.01171000  1.0 0.7707010688
H  H1  1  0.19040000  0.73540000  0.17880000  1.0 0.1210468989
H  H2  1  0.73540000  0.17880000  0.19040000  1.0 0.1210468989
H  H3  1  0.17880000  0.19040000  0.73540000  1.0 0.1210468989
H  H4  1  0.80960000  0.26460000  0.82120000  1.0 0.1210468989
H  H5  1  0.26460000  0.82120000  0.80960000  1.0 0.1210468989
H  H6  1  0.82120000  0.80960000  0.26460000  1.0 0.1210468989
H  H7  1  0.12140000  0.05040000  0.46050000  1.0 0.1461659378
H  H8  1  0.05040000  0.46050000  0.12140000  1.0 0.1461659378
H  H9  1  0.46050000  0.12140000  0.05040000  1.0 0.1461659378
H  H10  1  0.87860000  0.94960000  0.53950000  1.0 0.1461659378
H  H11  1  0.94960000  0.53950000  0.87860000  1.0 0.1461659378
H  H12  1  0.53950000  0.87860000  0.94960000  1.0 0.1461659378
H  H13  1  0.07700000  0.17360000  0.44410000  1.0 0.1012327066
H  H14  1  0.17360000  0.44410000  0.07700000  1.0 0.1012327066
H  H15  1  0.44410000  0.07700000  0.17360000  1.0 0.1012327066
H  H16  1  0.92300000  0.82640000  0.55590000  1.0 0.1012327066
H  H17  1  0.82640000  0.55590000  0.92300000  1.0 0.1012327066
H  H18  1  0.55590000  0.92300000  0.82640000  1.0 0.1012327066
H  H19  1  0.27920000  0.39590000  0.67060000  1.0 0.0801052792
H  H20  1  0.39590000  0.67060000  0.27920000  1.0 0.0801052792
H  H21  1  0.67060000  0.27920000  0.39590000  1.0 0.0801052792
H  H22  1  0.72080000  0.60410000  0.32940000  1.0 0.0801052792
H  H23  1  0.60410000  0.32940000  0.72080000  1.0 0.0801052792
H  H24  1  0.32940000  0.72080000  0.60410000  1.0 0.0801052792
H  H25  1  0.24210000  0.33940000  0.53110000  1.0 0.0801052792
H  H26  1  0.33940000  0.53110000  0.24210000  1.0 0.0801052792
H  H27  1  0.53110000  0.24210000  0.33940000  1.0 0.0801052792
H  H28  1  0.75790000  0.66060000  0.46890000  1.0 0.0801052792
H  H29  1  0.66060000  0.46890000  0.75790000  1.0 0.0801052792
H  H30  1  0.46890000  0.75790000  0.66060000  1.0 0.0801052792
H  H31  1  0.53450000  0.46030000  0.78410000  1.0 0.106887599
H  H32  1  0.46030000  0.78410000  0.53450000  1.0 0.106887599
H  H33  1  0.78410000  0.53450000  0.46030000  1.0 0.106887599
H  H34  1  0.46550000  0.53970000  0.21590000  1.0 0.106887599
H  H35  1  0.53970000  0.21590000  0.46550000  1.0 0.106887599
H  H36  1  0.21590000  0.46550000  0.53970000  1.0 0.106887599
H  H37  1  0.46000000  0.47200000  0.68940000  1.0 0.0575624859
H  H38  1  0.47200000  0.68940000  0.46000000  1.0 0.0575624859
H  H39  1  0.68940000  0.46000000  0.47200000  1.0 0.0575624859
H  H40  1  0.54000000  0.52800000  0.31060000  1.0 0.0575624859
H  H41  1  0.52800000  0.31060000  0.54000000  1.0 0.0575624859
H  H42  1  0.31060000  0.54000000  0.52800000  1.0 0.0575624859
H  H43  1  0.49400000  0.53050000  0.82760000  1.0 0.1210468989
H  H44  1  0.53050000  0.82760000  0.49400000  1.0 0.1210468989
H  H45  1  0.82760000  0.49400000  0.53050000  1.0 0.1210468989
H  H46  1  0.50600000  0.46950000  0.17240000  1.0 0.1210468989
H  H47  1  0.46950000  0.17240000  0.50600000  1.0 0.1210468989
H  H48  1  0.17240000  0.50600000  0.46950000  1.0 0.1210468989
H  H49  1  0.61020000  0.39910000  0.85840000  1.0 0.1299746812
H  H50  1  0.39910000  0.85840000  0.61020000  1.0 0.1299746812
H  H51  1  0.85840000  0.61020000  0.39910000  1.0 0.1299746812
H  H52  1  0.38980000  0.60090000  0.14160000  1.0 0.1299746812
H  H53  1  0.60090000  0.14160000  0.38980000  1.0 0.1299746812
H  H54  1  0.14160000  0.38980000  0.60090000  1.0 0.1299746812
H  H55  1  0.86500000  0.70590000  0.06870000  1.0 0.106887599
H  H56  1  0.70590000  0.06870000  0.86500000  1.0 0.1012327066
H  H57  1  0.06870000  0.86500000  0.70590000  1.0 0.106887599
H  H58  1  0.13500000  0.29410000  0.93130000  1.0 0.106887599
H  H59  1  0.29410000  0.93130000  0.13500000  1.0 0.106887599
H  H60  1  0.93130000  0.13500000  0.29410000  1.0 0.1012327066
H  H61  1  0.79450000  0.70420000  0.95640000  1.0 0.1012327066
H  H62  1  0.70420000  0.95640000  0.79450000  1.0 0.1012327066
H  H63  1  0.95640000  0.79450000  0.70420000  1.0 0.1012327066
H  H64  1  0.20550000  0.29580000  0.04360000  1.0 0.1012327066
H  H65  1  0.29580000  0.04360000  0.20550000  1.0 0.1012327066
H  H66  1  0.04360000  0.20550000  0.29580000  1.0 0.1012327066
H  H67  1  0.81330000  0.76970000  0.08480000  1.0 0.1012327066
H  H68  1  0.76970000  0.08480000  0.81330000  1.0 0.1012327066
H  H69  1  0.08480000  0.81330000  0.76970000  1.0 0.1012327066
H  H70  1  0.18670000  0.23030000  0.91520000  1.0 0.1012327066
H  H71  1  0.23030000  0.91520000  0.18670000  1.0 0.1012327066
H  H72  1  0.91520000  0.18670000  0.23030000  1.0 0.1012327066
H  H73  1  0.63270000  0.64510000  0.87820000  1.0 0.0575624859
H  H74  1  0.64510000  0.87820000  0.63270000  1.0 0.0575624859
H  H75  1  0.87820000  0.63270000  0.64510000  1.0 0.0575624859
H  H76  1  0.36730000  0.35490000  0.12180000  1.0 0.0575624859
H  H77  1  0.35490000  0.12180000  0.36730000  1.0 0.0575624859
H  H78  1  0.12180000  0.36730000  0.35490000  1.0 0.0575624859
H  H79  1  0.43710000  0.41720000  0.66090000  1.0 0.0717501125
H  H80  1  0.41720000  0.66090000  0.43710000  1.0 0.0717501125
H  H81  1  0.66090000  0.43710000  0.41720000  1.0 0.0717501125
H  H82  1  0.56290000  0.58280000  0.33910000  1.0 0.0717501125
H  H83  1  0.58280000  0.33910000  0.56290000  1.0 0.0717501125
H  H84  1  0.33910000  0.56290000  0.58280000  1.0 0.0717501125
H  H85  1  0.46560000  0.49160000  0.79740000  1.0 0.1210468989
H  H86  1  0.49160000  0.79740000  0.46560000  1.0 0.1210468989
H  H87  1  0.79740000  0.46560000  0.49160000  1.0 0.1210468989
H  H88  1  0.53440000  0.50840000  0.20260000  1.0 0.1210468989
H  H89  1  0.50840000  0.20260000  0.53440000  1.0 0.1210468989
H  H90  1  0.20260000  0.53440000  0.50840000  1.0 0.1210468989
C  C1  1  0.35500000  0.92800000  0.43930000  1.0 0.0024765036
C  C2  1  0.92800000  0.43930000  0.35500000  1.0 0.0024765036
C  C3  1  0.43930000  0.35500000  0.92800000  1.0 0.0024765036
C  C4  1  0.64500000  0.07200000  0.56070000  1.0 0.0024765036
C  C5  1  0.07200000  0.56070000  0.64500000  1.0 0.0024765036
C  C6  1  0.56070000  0.64500000  0.07200000  1.0 0.0024765036
C  C7  1  0.31820000  0.84450000  0.31150000  1.0 -0.2539873639
C  C8  1  0.84450000  0.31150000  0.31820000  1.0 -0.2539873639
C  C9  1  0.31150000  0.31820000  0.84450000  1.0 -0.2539873639
C  C10  1  0.68180000  0.15550000  0.68850000  1.0 -0.2539873639
C  C11  1  0.15550000  0.68850000  0.68180000  1.0 -0.2539873639
C  C12  1  0.68850000  0.68180000  0.15550000  1.0 -0.2539873639
C  C13  1  0.54580000  0.09190000  0.63750000  1.0 -0.0812011231
C  C14  1  0.09190000  0.63750000  0.54580000  1.0 -0.0812011231
C  C15  1  0.63750000  0.54580000  0.09190000  1.0 -0.0812011231
C  C16  1  0.45420000  0.90810000  0.36250000  1.0 -0.0812011231
C  C17  1  0.90810000  0.36250000  0.45420000  1.0 -0.0812011231
C  C18  1  0.36250000  0.45420000  0.90810000  1.0 -0.0812011231
C  C19  1  0.61800000  0.20180000  0.80040000  1.0 0.5364640734
C  C20  1  0.20180000  0.80040000  0.61800000  1.0 0.5364640734
C  C21  1  0.80040000  0.61800000  0.20180000  1.0 0.5364640734
C  C22  1  0.38200000  0.79820000  0.19960000  1.0 0.5364640734
C  C23  1  0.79820000  0.19960000  0.38200000  1.0 0.5364640734
C  C24  1  0.19960000  0.38200000  0.79820000  1.0 0.5364640734
C  C25  1  0.25470000  0.17430000  0.56600000  1.0 0.0024765036
C  C26  1  0.17430000  0.56600000  0.25470000  1.0 0.0024765036
C  C27  1  0.56600000  0.25470000  0.17430000  1.0 0.0024765036
C  C28  1  0.74530000  0.82570000  0.43400000  1.0 0.0024765036
C  C29  1  0.82570000  0.43400000  0.74530000  1.0 0.0024765036
C  C30  1  0.43400000  0.74530000  0.82570000  1.0 0.0024765036
C  C31  1  0.21760000  0.29790000  0.55750000  1.0 -0.2408560483
C  C32  1  0.29790000  0.55750000  0.21760000  1.0 -0.2408560483
C  C33  1  0.55750000  0.21760000  0.29790000  1.0 -0.2408560483
C  C34  1  0.78240000  0.70210000  0.44250000  1.0 -0.2408560483
C  C35  1  0.70210000  0.44250000  0.78240000  1.0 -0.2408560483
C  C36  1  0.44250000  0.78240000  0.70210000  1.0 -0.2408560483
C  C37  1  0.45080000  0.44230000  0.72890000  1.0 -0.0745243946
C  C38  1  0.44230000  0.72890000  0.45080000  1.0 -0.0745243946
C  C39  1  0.72890000  0.45080000  0.44230000  1.0 -0.0745243946
C  C40  1  0.54920000  0.55770000  0.27110000  1.0 -0.0745243946
C  C41  1  0.55770000  0.27110000  0.54920000  1.0 -0.0745243946
C  C42  1  0.27110000  0.54920000  0.55770000  1.0 -0.0745243946
C  C43  1  0.51860000  0.36430000  0.78110000  1.0 -0.0077368517
C  C44  1  0.36430000  0.78110000  0.51860000  1.0 -0.0077368517
C  C45  1  0.78110000  0.51860000  0.36430000  1.0 -0.0077368517
C  C46  1  0.48140000  0.63570000  0.21890000  1.0 -0.0077368517
C  C47  1  0.63570000  0.21890000  0.48140000  1.0 -0.0077368517
C  C48  1  0.21890000  0.48140000  0.63570000  1.0 -0.0077368517
C  C49  1  0.77900000  0.68150000  0.99850000  1.0 -0.2408560483
C  C50  1  0.68150000  0.99850000  0.77900000  1.0 -0.2408560483
C  C51  1  0.99850000  0.77900000  0.68150000  1.0 -0.2408560483
C  C52  1  0.22100000  0.31850000  0.00150000  1.0 -0.2408560483
C  C53  1  0.31850000  0.00150000  0.22100000  1.0 -0.2408560483
C  C54  1  0.00150000  0.22100000  0.31850000  1.0 -0.2408560483
C  C55  1  0.53130000  0.51570000  0.79400000  1.0 -0.1170699168
C  C56  1  0.51570000  0.79400000  0.53130000  1.0 -0.1170699168
C  C57  1  0.79400000  0.53130000  0.51570000  1.0 -0.1170699168
C  C58  1  0.46870000  0.48430000  0.20600000  1.0 -0.1170699168
C  C59  1  0.48430000  0.20600000  0.46870000  1.0 -0.1170699168
C  C60  1  0.20600000  0.46870000  0.48430000  1.0 -0.1170699168
S  S1  1  0.15497000  0.81897000  0.33226000  1.0 -0.4841799159
S  S2  1  0.81897000  0.33226000  0.15497000  1.0 -0.4841799159
S  S3  1  0.33226000  0.15497000  0.81897000  1.0 -0.4841799159
S  S4  1  0.84503000  0.18103000  0.66774000  1.0 -0.4841799159
S  S5  1  0.18103000  0.66774000  0.84503000  1.0 -0.4841799159
S  S6  1  0.66774000  0.84503000  0.18103000  1.0 -0.4841799159
N  N1  1  0.28580000  0.27750000  0.59070000  1.0 -0.0160583413
N  N2  1  0.27750000  0.59070000  0.28580000  1.0 -0.0160583413
N  N3  1  0.59070000  0.28580000  0.27750000  1.0 -0.0160583413
N  N4  1  0.71420000  0.72250000  0.40930000  1.0 -0.0160583413
N  N5  1  0.72250000  0.40930000  0.71420000  1.0 -0.0160583413
N  N6  1  0.40930000  0.71420000  0.72250000  1.0 -0.0160583413
N  N7  1  0.60570000  0.50860000  0.85270000  1.0 0.0192914965
N  N8  1  0.50860000  0.85270000  0.60570000  1.0 0.0192914965
N  N9  1  0.85270000  0.60570000  0.50860000  1.0 0.0192914965
N  N10  1  0.39430000  0.49140000  0.14730000  1.0 0.0192914965
N  N11  1  0.49140000  0.14730000  0.39430000  1.0 0.0192914965
N  N12  1  0.14730000  0.39430000  0.49140000  1.0 0.0192914965
O  O1  1  0.50299000  0.13870000  0.76941000  1.0 -0.5196836013
O  O2  1  0.13870000  0.76941000  0.50299000  1.0 -0.5196836013
O  O3  1  0.76941000  0.50299000  0.13870000  1.0 -0.5196836013
O  O4  1  0.49701000  0.86130000  0.23059000  1.0 -0.5196836013
O  O5  1  0.86130000  0.23059000  0.49701000  1.0 -0.5196836013
O  O6  1  0.23059000  0.49701000  0.86130000  1.0 -0.5196836013
O  O7  1  0.79817000  0.35580000  0.96813000  1.0 -0.5196836013
O  O8  1  0.35580000  0.96813000  0.79817000  1.0 -0.5196836013
O  O9  1  0.96813000  0.79817000  0.35580000  1.0 -0.5196836013
O  O10  1  0.20183000  0.64420000  0.03187000  1.0 -0.5196836013
O  O11  1  0.64420000  0.03187000  0.20183000  1.0 -0.5196836013
O  O12  1  0.03187000  0.20183000  0.64420000  1.0 -0.5196836013
O  O13  1  0.35190000  0.19310000  0.64230000  1.0 -0.2775277514
O  O14  1  0.19310000  0.64230000  0.35190000  1.0 -0.2775277514
O  O15  1  0.64230000  0.35190000  0.19310000  1.0 -0.2775277514
O  O16  1  0.64810000  0.80690000  0.35770000  1.0 -0.2775277514
O  O17  1  0.80690000  0.35770000  0.64810000  1.0 -0.2775277514
O  O18  1  0.35770000  0.64810000  0.80690000  1.0 -0.2775277514
