# DDEC6 charges by PACMAN v1.1 (https://github.com/mtap-research/PACMAN-charge/)
data_WUGQAS_ASR_pacman
_symmetry_space_group_name_H-M   'P 1'
_cell_length_a   16.66440000
_cell_length_b   16.66440000
_cell_length_c   16.66440000
_cell_angle_alpha   70.17920000
_cell_angle_beta   70.17920000
_cell_angle_gamma   70.17920000
_symmetry_Int_Tables_number   1
_chemical_formula_structural   ZnH3C11(NO2)2
_chemical_formula_sum   'Zn6 H18 C66 N12 O24'
_cell_volume   3962.18577787
_cell_formula_units_Z   6
loop_
 _symmetry_equiv_pos_site_id
 _symmetry_equiv_pos_as_xyz
  1  'x, y, z'
loop_
 _atom_site_type_symbol
 _atom_site_label
 _atom_site_symmetry_multiplicity
 _atom_site_fract_x
 _atom_site_fract_y
 _atom_site_fract_z
 _atom_site_occupancy
 _atom_site_charge
Zn  Zn1  1  0.50919000  0.08220000  0.50919000  1.0 0.9481915001
Zn  Zn2  1  0.08220000  0.50919000  0.50919000  1.0 0.9481915001
Zn  Zn3  1  0.50919000  0.50919000  0.08220000  1.0 0.9481915001
Zn  Zn4  1  0.49081000  0.49081000  0.91780000  1.0 0.9481915001
Zn  Zn5  1  0.91780000  0.49081000  0.49081000  1.0 0.9481915001
Zn  Zn6  1  0.49081000  0.91780000  0.49081000  1.0 0.9481915001
H  H1  1  0.53030000  0.23320000  0.23320000  1.0 0.1301242425
H  H2  1  0.23320000  0.23320000  0.53030000  1.0 0.1301242425
H  H3  1  0.23320000  0.53030000  0.23320000  1.0 0.1301242425
H  H4  1  0.46970000  0.76680000  0.76680000  1.0 0.1301242425
H  H5  1  0.76680000  0.46970000  0.76680000  1.0 0.1301242425
H  H6  1  0.76680000  0.76680000  0.46970000  1.0 0.1301242425
H  H7  1  0.51540000  0.00490000  0.21360000  1.0 0.1361628921
H  H8  1  0.00490000  0.21360000  0.51540000  1.0 0.1361628921
H  H9  1  0.21360000  0.51540000  0.00490000  1.0 0.1361628921
H  H10  1  0.48460000  0.78640000  0.99510000  1.0 0.1361628921
H  H11  1  0.99510000  0.48460000  0.78640000  1.0 0.1361628921
H  H12  1  0.78640000  0.99510000  0.48460000  1.0 0.1361628921
H  H13  1  0.48460000  0.99510000  0.78640000  1.0 0.1361628921
H  H14  1  0.99510000  0.78640000  0.48460000  1.0 0.1361628921
H  H15  1  0.78640000  0.48460000  0.99510000  1.0 0.1361628921
H  H16  1  0.51540000  0.21360000  0.00490000  1.0 0.1361628921
H  H17  1  0.00490000  0.51540000  0.21360000  1.0 0.1361628921
H  H18  1  0.21360000  0.00490000  0.51540000  1.0 0.1361628921
C  C1  1  0.51810000  0.07360000  0.33450000  1.0 0.5963397636
C  C2  1  0.07360000  0.33450000  0.51810000  1.0 0.5963397636
C  C3  1  0.33450000  0.51810000  0.07360000  1.0 0.5963397636
C  C4  1  0.48190000  0.66550000  0.92640000  1.0 0.5963397636
C  C5  1  0.92640000  0.48190000  0.66550000  1.0 0.5963397636
C  C6  1  0.66550000  0.92640000  0.48190000  1.0 0.5963397636
C  C7  1  0.48190000  0.92640000  0.66550000  1.0 0.5963397636
C  C8  1  0.92640000  0.66550000  0.48190000  1.0 0.5963397636
C  C9  1  0.66550000  0.48190000  0.92640000  1.0 0.5963397636
C  C10  1  0.51810000  0.33450000  0.07360000  1.0 0.5963397636
C  C11  1  0.07360000  0.51810000  0.33450000  1.0 0.5963397636
C  C12  1  0.33450000  0.07360000  0.51810000  1.0 0.5963397636
C  C13  1  0.52478000  0.20056000  0.20056000  1.0 -0.0978259886
C  C14  1  0.20056000  0.20056000  0.52478000  1.0 -0.0978259886
C  C15  1  0.20056000  0.52478000  0.20056000  1.0 -0.0978259886
C  C16  1  0.47522000  0.79944000  0.79944000  1.0 -0.0978259886
C  C17  1  0.79944000  0.47522000  0.79944000  1.0 -0.0978259886
C  C18  1  0.79944000  0.79944000  0.47522000  1.0 -0.0978259886
C  C19  1  0.52074000  0.11354000  0.23984000  1.0 -0.0346315403
C  C20  1  0.11354000  0.23984000  0.52074000  1.0 -0.0346315403
C  C21  1  0.23984000  0.52074000  0.11354000  1.0 -0.0346315403
C  C22  1  0.47926000  0.76016000  0.88646000  1.0 -0.0346315403
C  C23  1  0.88646000  0.47926000  0.76016000  1.0 -0.0346315403
C  C24  1  0.76016000  0.88646000  0.47926000  1.0 -0.0346315403
C  C25  1  0.47926000  0.88646000  0.76016000  1.0 -0.0346315403
C  C26  1  0.88646000  0.76016000  0.47926000  1.0 -0.0346315403
C  C27  1  0.76016000  0.47926000  0.88646000  1.0 -0.0346315403
C  C28  1  0.52074000  0.23984000  0.11354000  1.0 -0.0346315403
C  C29  1  0.11354000  0.52074000  0.23984000  1.0 -0.0354284171
C  C30  1  0.23984000  0.11354000  0.52074000  1.0 -0.0346315403
C  C31  1  0.51626000  0.06376000  0.18826000  1.0 -0.1098842503
C  C32  1  0.06376000  0.18826000  0.51626000  1.0 -0.1098842503
C  C33  1  0.18826000  0.51626000  0.06376000  1.0 -0.1098842503
C  C34  1  0.48374000  0.81174000  0.93624000  1.0 -0.1098842503
C  C35  1  0.93624000  0.48374000  0.81174000  1.0 -0.1098842503
C  C36  1  0.81174000  0.93624000  0.48374000  1.0 -0.1098842503
C  C37  1  0.48374000  0.93624000  0.81174000  1.0 -0.1098842503
C  C38  1  0.93624000  0.81174000  0.48374000  1.0 -0.1098842503
C  C39  1  0.81174000  0.48374000  0.93624000  1.0 -0.1098842503
C  C40  1  0.51626000  0.18826000  0.06376000  1.0 -0.1098842503
C  C41  1  0.06376000  0.51626000  0.18826000  1.0 -0.1098842503
C  C42  1  0.18826000  0.06376000  0.51626000  1.0 -0.1098842503
C  C43  1  0.51298000  0.10068000  0.10068000  1.0 0.0810597713
C  C44  1  0.10068000  0.10068000  0.51298000  1.0 0.0810597713
C  C45  1  0.10068000  0.51298000  0.10068000  1.0 0.0810597713
C  C46  1  0.48702000  0.89932000  0.89932000  1.0 0.0810597713
C  C47  1  0.89932000  0.48702000  0.89932000  1.0 0.0810597713
C  C48  1  0.89932000  0.89932000  0.48702000  1.0 0.0810597713
C  C49  1  0.50643000  0.04883000  0.04883000  1.0 0.1632360283
C  C50  1  0.04883000  0.04883000  0.50643000  1.0 0.1632360283
C  C51  1  0.04883000  0.50643000  0.04883000  1.0 0.1632360283
C  C52  1  0.49357000  0.95117000  0.95117000  1.0 0.1632360283
C  C53  1  0.95117000  0.49357000  0.95117000  1.0 0.1632360283
C  C54  1  0.95117000  0.95117000  0.49357000  1.0 0.1632360283
C  C55  1  0.45940000  0.08710000  0.98970000  1.0 -0.0073457562
C  C56  1  0.08710000  0.98970000  0.45940000  1.0 -0.0073457562
C  C57  1  0.98970000  0.45940000  0.08710000  1.0 -0.0073457562
C  C58  1  0.54060000  0.01030000  0.91290000  1.0 -0.0073457562
C  C59  1  0.91290000  0.54060000  0.01030000  1.0 -0.0073457562
C  C60  1  0.01030000  0.91290000  0.54060000  1.0 -0.0073457562
C  C61  1  0.54060000  0.91290000  0.01030000  1.0 -0.0073457562
C  C62  1  0.91290000  0.01030000  0.54060000  1.0 -0.0073457562
C  C63  1  0.01030000  0.54060000  0.91290000  1.0 -0.0047798098
C  C64  1  0.45940000  0.98970000  0.08710000  1.0 -0.0047798098
C  C65  1  0.08710000  0.45940000  0.98970000  1.0 0.0032644484
C  C66  1  0.98970000  0.08710000  0.45940000  1.0 0.0032644484
N  N1  1  0.54160000  0.06240000  0.96490000  1.0 -0.083003727
N  N2  1  0.06240000  0.96490000  0.54160000  1.0 -0.1098842503
N  N3  1  0.96490000  0.54160000  0.06240000  1.0 -0.0978259886
N  N4  1  0.45840000  0.03510000  0.93760000  1.0 -0.1098842503
N  N5  1  0.93760000  0.45840000  0.03510000  1.0 -0.0978259886
N  N6  1  0.03510000  0.93760000  0.45840000  1.0 -0.083003727
N  N7  1  0.45840000  0.93760000  0.03510000  1.0 -0.0978259886
N  N8  1  0.93760000  0.03510000  0.45840000  1.0 -0.1098842503
N  N9  1  0.03510000  0.45840000  0.93760000  1.0 -0.1098842503
N  N10  1  0.54160000  0.96490000  0.06240000  1.0 -0.1098842503
N  N11  1  0.06240000  0.54160000  0.96490000  1.0 -0.1098842503
N  N12  1  0.96490000  0.06240000  0.54160000  1.0 -0.1098842503
O  O1  1  0.52310000  0.12026000  0.37695000  1.0 -0.5399856107
O  O2  1  0.12026000  0.37695000  0.52310000  1.0 -0.5399856107
O  O3  1  0.37695000  0.52310000  0.12026000  1.0 -0.5399856107
O  O4  1  0.47690000  0.62305000  0.87974000  1.0 -0.5399856107
O  O5  1  0.87974000  0.47690000  0.62305000  1.0 -0.5399856107
O  O6  1  0.62305000  0.87974000  0.47690000  1.0 -0.5399856107
O  O7  1  0.47690000  0.87974000  0.62305000  1.0 -0.5399856107
O  O8  1  0.87974000  0.62305000  0.47690000  1.0 -0.5399856107
O  O9  1  0.62305000  0.47690000  0.87974000  1.0 -0.5399856107
O  O10  1  0.52310000  0.37695000  0.12026000  1.0 -0.5399856107
O  O11  1  0.12026000  0.52310000  0.37695000  1.0 -0.5399856107
O  O12  1  0.37695000  0.12026000  0.52310000  1.0 -0.5399856107
O  O13  1  0.51185000  0.99459000  0.36594000  1.0 -0.552788296
O  O14  1  0.99459000  0.36594000  0.51185000  1.0 -0.552788296
O  O15  1  0.36594000  0.51185000  0.99459000  1.0 -0.552788296
O  O16  1  0.48815000  0.63406000  0.00541000  1.0 -0.552788296
O  O17  1  0.00541000  0.48815000  0.63406000  1.0 -0.552788296
O  O18  1  0.63406000  0.00541000  0.48815000  1.0 -0.552788296
O  O19  1  0.48815000  0.00541000  0.63406000  1.0 -0.552788296
O  O20  1  0.00541000  0.63406000  0.48815000  1.0 -0.552788296
O  O21  1  0.63406000  0.48815000  0.00541000  1.0 -0.552788296
O  O22  1  0.51185000  0.36594000  0.99459000  1.0 -0.552788296
O  O23  1  0.99459000  0.51185000  0.36594000  1.0 -0.552788296
O  O24  1  0.36594000  0.99459000  0.51185000  1.0 -0.552788296
