# DDEC6 charges by PACMAN v1.1 (https://github.com/mtap-research/PACMAN-charge/)
data_WUHHUC_ion_pacman
_symmetry_space_group_name_H-M   'P 1'
_cell_length_a   14.51650000
_cell_length_b   14.51650000
_cell_length_c   14.51650000
_cell_angle_alpha   111.72300000
_cell_angle_beta   111.72300000
_cell_angle_gamma   111.72300000
_symmetry_Int_Tables_number   1
_chemical_formula_structural   ErH24C42N6(ClO6)3
_chemical_formula_sum   'Er2 H48 C84 N12 Cl6 O36'
_cell_volume   2136.14583365
_cell_formula_units_Z   2
loop_
 _symmetry_equiv_pos_site_id
 _symmetry_equiv_pos_as_xyz
  1  'x, y, z'
loop_
 _atom_site_type_symbol
 _atom_site_label
 _atom_site_symmetry_multiplicity
 _atom_site_fract_x
 _atom_site_fract_y
 _atom_site_fract_z
 _atom_site_occupancy
 _atom_site_charge
Er  Er1  1  0.25000000  0.25000000  0.25000000  1.0 1.9131678164
Er  Er2  1  0.75000000  0.75000000  0.75000000  1.0 1.9131678164
H  H1  1  0.02212000  0.04768000  0.34120000  1.0 0.1326241173
H  H2  1  0.34120000  0.02212000  0.04768000  1.0 0.1326241173
H  H3  1  0.47788000  0.15880000  0.45232000  1.0 0.1326241173
H  H4  1  0.15880000  0.45232000  0.47788000  1.0 0.1326241173
H  H5  1  0.45232000  0.47788000  0.15880000  1.0 0.1326241173
H  H6  1  0.04768000  0.34120000  0.02212000  1.0 0.1326241173
H  H7  1  0.87422000  0.04728000  0.36710000  1.0 0.1370843992
H  H8  1  0.36710000  0.87422000  0.04728000  1.0 0.1370843992
H  H9  1  0.62578000  0.13290000  0.45272000  1.0 0.1370843992
H  H10  1  0.13290000  0.45272000  0.62578000  1.0 0.1370843992
H  H11  1  0.45272000  0.62578000  0.13290000  1.0 0.1370843992
H  H12  1  0.04728000  0.36710000  0.87422000  1.0 0.1370843992
H  H13  1  0.85052000  0.22148000  0.20970000  1.0 0.1326241173
H  H14  1  0.20970000  0.85052000  0.22148000  1.0 0.1326241173
H  H15  1  0.64948000  0.29030000  0.27852000  1.0 0.1326241173
H  H16  1  0.29030000  0.27852000  0.64948000  1.0 0.1326241173
H  H17  1  0.27852000  0.64948000  0.29030000  1.0 0.1326241173
H  H18  1  0.22148000  0.20970000  0.85052000  1.0 0.1326241173
H  H19  1  0.98162000  0.19888000  0.16510000  1.0 0.1326241173
H  H20  1  0.16510000  0.98162000  0.19888000  1.0 0.1326241173
H  H21  1  0.51838000  0.33490000  0.30112000  1.0 0.1326241173
H  H22  1  0.33490000  0.30112000  0.51838000  1.0 0.1326241173
H  H23  1  0.30112000  0.51838000  0.33490000  1.0 0.1326241173
H  H24  1  0.19888000  0.16510000  0.98162000  1.0 0.1326241173
H  H25  1  0.54768000  0.52212000  0.84120000  1.0 0.1326241173
H  H26  1  0.52212000  0.84120000  0.54768000  1.0 0.1326241173
H  H27  1  0.84120000  0.54768000  0.52212000  1.0 0.1326241173
H  H28  1  0.95232000  0.65880000  0.97788000  1.0 0.1326241173
H  H29  1  0.97788000  0.95232000  0.65880000  1.0 0.1326241173
H  H30  1  0.65880000  0.97788000  0.95232000  1.0 0.1326241173
H  H31  1  0.54728000  0.37422000  0.86710000  1.0 0.1370843992
H  H32  1  0.37422000  0.86710000  0.54728000  1.0 0.1370843992
H  H33  1  0.86710000  0.54728000  0.37422000  1.0 0.1370843992
H  H34  1  0.95272000  0.63290000  0.12578000  1.0 0.1370843992
H  H35  1  0.12578000  0.95272000  0.63290000  1.0 0.1370843992
H  H36  1  0.63290000  0.12578000  0.95272000  1.0 0.1370843992
H  H37  1  0.72148000  0.35052000  0.70970000  1.0 0.1326241173
H  H38  1  0.35052000  0.70970000  0.72148000  1.0 0.1326241173
H  H39  1  0.70970000  0.72148000  0.35052000  1.0 0.1326241173
H  H40  1  0.77852000  0.79030000  0.14948000  1.0 0.1326241173
H  H41  1  0.14948000  0.77852000  0.79030000  1.0 0.1326241173
H  H42  1  0.79030000  0.14948000  0.77852000  1.0 0.1326241173
H  H43  1  0.69888000  0.48162000  0.66510000  1.0 0.1326241173
H  H44  1  0.48162000  0.66510000  0.69888000  1.0 0.1326241173
H  H45  1  0.66510000  0.69888000  0.48162000  1.0 0.1326241173
H  H46  1  0.80112000  0.83490000  0.01838000  1.0 0.1326241173
H  H47  1  0.01838000  0.80112000  0.83490000  1.0 0.1326241173
H  H48  1  0.83490000  0.01838000  0.80112000  1.0 0.1326241173
C  C1  1  0.98352000  0.07898000  0.31130000  1.0 -0.036790252
C  C2  1  0.31130000  0.98352000  0.07898000  1.0 -0.036790252
C  C3  1  0.51648000  0.18870000  0.42102000  1.0 -0.036790252
C  C4  1  0.18870000  0.42102000  0.51648000  1.0 -0.036790252
C  C5  1  0.42102000  0.51648000  0.18870000  1.0 -0.036790252
C  C6  1  0.07898000  0.31130000  0.98352000  1.0 -0.036790252
C  C7  1  0.89692000  0.08138000  0.32950000  1.0 -0.2410410512
C  C8  1  0.32950000  0.89692000  0.08138000  1.0 -0.2410410512
C  C9  1  0.60308000  0.17050000  0.41862000  1.0 -0.2410410512
C  C10  1  0.17050000  0.41862000  0.60308000  1.0 -0.2410410512
C  C11  1  0.41862000  0.60308000  0.17050000  1.0 -0.2410410512
C  C12  1  0.08138000  0.32950000  0.89692000  1.0 -0.2410410512
C  C13  1  0.84262000  0.13598000  0.29080000  1.0 0.1241857342
C  C14  1  0.29080000  0.84262000  0.13598000  1.0 0.1241857342
C  C15  1  0.65738000  0.20920000  0.36402000  1.0 0.1241857342
C  C16  1  0.20920000  0.36402000  0.65738000  1.0 0.1241857342
C  C17  1  0.36402000  0.65738000  0.20920000  1.0 0.1241857342
C  C18  1  0.13598000  0.29080000  0.84262000  1.0 0.1241857342
C  C19  1  0.88102000  0.18178000  0.23330000  1.0 -0.204326722
C  C20  1  0.23330000  0.88102000  0.18178000  1.0 -0.204326722
C  C21  1  0.61898000  0.26670000  0.31822000  1.0 -0.204326722
C  C22  1  0.26670000  0.31822000  0.61898000  1.0 -0.2055022002
C  C23  1  0.31822000  0.61898000  0.26670000  1.0 -0.2055022002
C  C24  1  0.18178000  0.23330000  0.88102000  1.0 -0.2055022002
C  C25  1  0.96242000  0.17178000  0.20870000  1.0 -0.0254080877
C  C26  1  0.20870000  0.96242000  0.17178000  1.0 -0.0254080877
C  C27  1  0.53758000  0.29130000  0.32822000  1.0 -0.0254080877
C  C28  1  0.29130000  0.32822000  0.53758000  1.0 -0.0254080877
C  C29  1  0.32822000  0.53758000  0.29130000  1.0 -0.0254080877
C  C30  1  0.17178000  0.20870000  0.96242000  1.0 -0.0254080877
C  C31  1  0.72352000  0.10978000  0.27380000  1.0 0.0256330309
C  C32  1  0.27380000  0.72352000  0.10978000  1.0 0.0256330309
C  C33  1  0.77648000  0.22620000  0.39022000  1.0 0.0256330309
C  C34  1  0.22620000  0.39022000  0.77648000  1.0 0.0256330309
C  C35  1  0.39022000  0.77648000  0.22620000  1.0 0.0256330309
C  C36  1  0.10978000  0.27380000  0.72352000  1.0 0.0256330309
C  C37  1  0.81832000  0.20708000  0.37420000  1.0 0.0121911147
C  C38  1  0.37420000  0.81832000  0.20708000  1.0 0.0121911147
C  C39  1  0.68168000  0.12580000  0.29292000  1.0 0.0121911147
C  C40  1  0.12580000  0.29292000  0.68168000  1.0 0.0121911147
C  C41  1  0.29292000  0.68168000  0.12580000  1.0 0.0121911147
C  C42  1  0.20708000  0.37420000  0.81832000  1.0 0.0121911147
C  C43  1  0.57898000  0.48352000  0.81130000  1.0 -0.036790252
C  C44  1  0.48352000  0.81130000  0.57898000  1.0 -0.036790252
C  C45  1  0.81130000  0.57898000  0.48352000  1.0 -0.036790252
C  C46  1  0.92102000  0.68870000  0.01648000  1.0 -0.036790252
C  C47  1  0.01648000  0.92102000  0.68870000  1.0 -0.036790252
C  C48  1  0.68870000  0.01648000  0.92102000  1.0 -0.036790252
C  C49  1  0.58138000  0.39692000  0.82950000  1.0 -0.2410410512
C  C50  1  0.39692000  0.82950000  0.58138000  1.0 -0.2410410512
C  C51  1  0.82950000  0.58138000  0.39692000  1.0 -0.2410410512
C  C52  1  0.91862000  0.67050000  0.10308000  1.0 -0.2410410512
C  C53  1  0.10308000  0.91862000  0.67050000  1.0 -0.2410410512
C  C54  1  0.67050000  0.10308000  0.91862000  1.0 -0.2410410512
C  C55  1  0.63598000  0.34262000  0.79080000  1.0 0.1241857342
C  C56  1  0.34262000  0.79080000  0.63598000  1.0 0.1241857342
C  C57  1  0.79080000  0.63598000  0.34262000  1.0 0.1241857342
C  C58  1  0.86402000  0.70920000  0.15738000  1.0 0.1241857342
C  C59  1  0.15738000  0.86402000  0.70920000  1.0 0.1241857342
C  C60  1  0.70920000  0.15738000  0.86402000  1.0 0.1241857342
C  C61  1  0.68178000  0.38102000  0.73330000  1.0 -0.2055022002
C  C62  1  0.38102000  0.73330000  0.68178000  1.0 -0.2055022002
C  C63  1  0.73330000  0.68178000  0.38102000  1.0 -0.2055022002
C  C64  1  0.81822000  0.76670000  0.11898000  1.0 -0.204326722
C  C65  1  0.11898000  0.81822000  0.76670000  1.0 -0.2055022002
C  C66  1  0.76670000  0.11898000  0.81822000  1.0 -0.2055022002
C  C67  1  0.67178000  0.46242000  0.70870000  1.0 -0.0254080877
C  C68  1  0.46242000  0.70870000  0.67178000  1.0 -0.0254080877
C  C69  1  0.70870000  0.67178000  0.46242000  1.0 -0.0254080877
C  C70  1  0.82822000  0.79130000  0.03758000  1.0 -0.0254080877
C  C71  1  0.03758000  0.82822000  0.79130000  1.0 -0.0254080877
C  C72  1  0.79130000  0.03758000  0.82822000  1.0 -0.0254080877
C  C73  1  0.60978000  0.22352000  0.77380000  1.0 0.0256330309
C  C74  1  0.22352000  0.77380000  0.60978000  1.0 0.0256330309
C  C75  1  0.77380000  0.60978000  0.22352000  1.0 0.0256330309
C  C76  1  0.89022000  0.72620000  0.27648000  1.0 0.0256330309
C  C77  1  0.27648000  0.89022000  0.72620000  1.0 0.0256330309
C  C78  1  0.72620000  0.27648000  0.89022000  1.0 0.0256330309
C  C79  1  0.70708000  0.31832000  0.87420000  1.0 0.0121911147
C  C80  1  0.31832000  0.87420000  0.70708000  1.0 0.0121911147
C  C81  1  0.87420000  0.70708000  0.31832000  1.0 0.0121911147
C  C82  1  0.79292000  0.62580000  0.18168000  1.0 0.0121911147
C  C83  1  0.18168000  0.79292000  0.62580000  1.0 0.0121911147
C  C84  1  0.62580000  0.18168000  0.79292000  1.0 0.0121911147
N  N1  1  0.01212000  0.12158000  0.25060000  1.0 0.3237968603
N  N2  1  0.25060000  0.01212000  0.12158000  1.0 0.3237968603
N  N3  1  0.48788000  0.24940000  0.37842000  1.0 0.3237968603
N  N4  1  0.24940000  0.37842000  0.48788000  1.0 0.3237968603
N  N5  1  0.37842000  0.48788000  0.24940000  1.0 0.3237968603
N  N6  1  0.12158000  0.25060000  0.01212000  1.0 0.3237968603
N  N7  1  0.62158000  0.51212000  0.75060000  1.0 0.3237968603
N  N8  1  0.51212000  0.75060000  0.62158000  1.0 0.3237968603
N  N9  1  0.75060000  0.62158000  0.51212000  1.0 0.3237968603
N  N10  1  0.87842000  0.74940000  0.98788000  1.0 0.3237968603
N  N11  1  0.98788000  0.87842000  0.74940000  1.0 0.3237968603
N  N12  1  0.74940000  0.98788000  0.87842000  1.0 0.3237968603
Cl  Cl1  1  0.48303000  0.25000000  0.01697000  1.0 1.2374885102
Cl  Cl2  1  0.25000000  0.01697000  0.48303000  1.0 1.2374885102
Cl  Cl3  1  0.01697000  0.48303000  0.25000000  1.0 1.2374885102
Cl  Cl4  1  0.75000000  0.98303000  0.51697000  1.0 1.2374885102
Cl  Cl5  1  0.51697000  0.75000000  0.98303000  1.0 1.2374885102
Cl  Cl6  1  0.98303000  0.51697000  0.75000000  1.0 1.2374885102
O  O1  1  0.09262000  0.11418000  0.23120000  1.0 -0.6114633014
O  O2  1  0.23120000  0.09262000  0.11418000  1.0 -0.6114633014
O  O3  1  0.40738000  0.26880000  0.38582000  1.0 -0.6114633014
O  O4  1  0.26880000  0.38582000  0.40738000  1.0 -0.6114633014
O  O5  1  0.38582000  0.40738000  0.26880000  1.0 -0.6114633014
O  O6  1  0.11418000  0.23120000  0.09262000  1.0 -0.6114633014
O  O7  1  0.61418000  0.59262000  0.73120000  1.0 -0.6114633014
O  O8  1  0.59262000  0.73120000  0.61418000  1.0 -0.6114633014
O  O9  1  0.73120000  0.61418000  0.59262000  1.0 -0.6114633014
O  O10  1  0.88582000  0.76880000  0.90738000  1.0 -0.6114633014
O  O11  1  0.90738000  0.88582000  0.76880000  1.0 -0.6114633014
O  O12  1  0.76880000  0.90738000  0.88582000  1.0 -0.6114633014
O  O13  1  0.51528000  0.34100000  0.12562000  1.0 -0.3892006854
O  O14  1  0.37438000  0.15900000  0.98472000  1.0 -0.3892006854
O  O15  1  0.56648000  0.22450000  0.05112000  1.0 -0.4493552973
O  O16  1  0.44888000  0.27550000  0.93352000  1.0 -0.4493552973
O  O17  1  0.15900000  0.98472000  0.37438000  1.0 -0.3892006854
O  O18  1  0.34100000  0.12562000  0.51528000  1.0 -0.3892006854
O  O19  1  0.27550000  0.93352000  0.44888000  1.0 -0.4493552973
O  O20  1  0.22450000  0.05112000  0.56648000  1.0 -0.4493552973
O  O21  1  0.98472000  0.37438000  0.15900000  1.0 -0.3892006854
O  O22  1  0.12562000  0.51528000  0.34100000  1.0 -0.3892006854
O  O23  1  0.93352000  0.44888000  0.27550000  1.0 -0.4493552973
O  O24  1  0.05112000  0.56648000  0.22450000  1.0 -0.4493552973
O  O25  1  0.65900000  0.87438000  0.48472000  1.0 -0.3892006854
O  O26  1  0.84100000  0.01528000  0.62562000  1.0 -0.3892006854
O  O27  1  0.77550000  0.94888000  0.43352000  1.0 -0.4493552973
O  O28  1  0.72450000  0.06648000  0.55112000  1.0 -0.4493552973
O  O29  1  0.48472000  0.65900000  0.87438000  1.0 -0.3892006854
O  O30  1  0.62562000  0.84100000  0.01528000  1.0 -0.3892006854
O  O31  1  0.43352000  0.77550000  0.94888000  1.0 -0.4493552973
O  O32  1  0.55112000  0.72450000  0.06648000  1.0 -0.4493552973
O  O33  1  0.87438000  0.48472000  0.65900000  1.0 -0.3892006854
O  O34  1  0.01528000  0.62562000  0.84100000  1.0 -0.3892006854
O  O35  1  0.94888000  0.43352000  0.77550000  1.0 -0.4493552973
O  O36  1  0.06648000  0.55112000  0.72450000  1.0 -0.4493552973
