# DDEC6 charges by PACMAN v1.1 (https://github.com/mtap-research/PACMAN-charge/)
data_WUHJAK_ion_pacman
_symmetry_space_group_name_H-M   'P 1'
_cell_length_a   14.49590000
_cell_length_b   14.49590000
_cell_length_c   14.49590000
_cell_angle_alpha   111.70600000
_cell_angle_beta   111.70600000
_cell_angle_gamma   111.70600000
_symmetry_Int_Tables_number   1
_chemical_formula_structural   YbH24C42N6(ClO6)3
_chemical_formula_sum   'Yb2 H48 C84 N12 Cl6 O36'
_cell_volume   2128.89227804
_cell_formula_units_Z   2
loop_
 _symmetry_equiv_pos_site_id
 _symmetry_equiv_pos_as_xyz
  1  'x, y, z'
loop_
 _atom_site_type_symbol
 _atom_site_label
 _atom_site_symmetry_multiplicity
 _atom_site_fract_x
 _atom_site_fract_y
 _atom_site_fract_z
 _atom_site_occupancy
 _atom_site_charge
Yb  Yb1  1  0.25000000  0.25000000  0.25000000  1.0 1.9430942269
Yb  Yb2  1  0.75000000  0.75000000  0.75000000  1.0 1.9455865355
H  H1  1  0.02192000  0.04688000  0.33980000  1.0 0.1317262271
H  H2  1  0.33980000  0.02192000  0.04688000  1.0 0.1317262271
H  H3  1  0.47808000  0.16020000  0.45312000  1.0 0.1317262271
H  H4  1  0.16020000  0.45312000  0.47808000  1.0 0.1317262271
H  H5  1  0.45312000  0.47808000  0.16020000  1.0 0.1317262271
H  H6  1  0.04688000  0.33980000  0.02192000  1.0 0.1317262271
H  H7  1  0.87672000  0.04988000  0.36890000  1.0 0.1372880222
H  H8  1  0.36890000  0.87672000  0.04988000  1.0 0.1372880222
H  H9  1  0.62328000  0.13110000  0.45012000  1.0 0.1372880222
H  H10  1  0.13110000  0.45012000  0.62328000  1.0 0.1372880222
H  H11  1  0.45012000  0.62328000  0.13110000  1.0 0.1372880222
H  H12  1  0.04988000  0.36890000  0.87672000  1.0 0.1372880222
H  H13  1  0.85262000  0.22248000  0.21050000  1.0 0.1317262271
H  H14  1  0.21050000  0.85262000  0.22248000  1.0 0.1317262271
H  H15  1  0.64738000  0.28950000  0.27752000  1.0 0.1317262271
H  H16  1  0.28950000  0.27752000  0.64738000  1.0 0.1317262271
H  H17  1  0.27752000  0.64738000  0.28950000  1.0 0.1317262271
H  H18  1  0.22248000  0.21050000  0.85262000  1.0 0.1317262271
H  H19  1  0.98342000  0.19938000  0.16520000  1.0 0.1317262271
H  H20  1  0.16520000  0.98342000  0.19938000  1.0 0.1317262271
H  H21  1  0.51658000  0.33480000  0.30062000  1.0 0.1317262271
H  H22  1  0.33480000  0.30062000  0.51658000  1.0 0.1317262271
H  H23  1  0.30062000  0.51658000  0.33480000  1.0 0.1317262271
H  H24  1  0.19938000  0.16520000  0.98342000  1.0 0.1317262271
H  H25  1  0.54688000  0.52192000  0.83980000  1.0 0.1317262271
H  H26  1  0.52192000  0.83980000  0.54688000  1.0 0.1317262271
H  H27  1  0.83980000  0.54688000  0.52192000  1.0 0.1317262271
H  H28  1  0.95312000  0.66020000  0.97808000  1.0 0.1317262271
H  H29  1  0.97808000  0.95312000  0.66020000  1.0 0.1317262271
H  H30  1  0.66020000  0.97808000  0.95312000  1.0 0.1317262271
H  H31  1  0.54988000  0.37672000  0.86890000  1.0 0.1372880222
H  H32  1  0.37672000  0.86890000  0.54988000  1.0 0.1372880222
H  H33  1  0.86890000  0.54988000  0.37672000  1.0 0.1372880222
H  H34  1  0.95012000  0.63110000  0.12328000  1.0 0.1372880222
H  H35  1  0.12328000  0.95012000  0.63110000  1.0 0.1372880222
H  H36  1  0.63110000  0.12328000  0.95012000  1.0 0.1372880222
H  H37  1  0.72248000  0.35262000  0.71050000  1.0 0.1317262271
H  H38  1  0.35262000  0.71050000  0.72248000  1.0 0.1317262271
H  H39  1  0.71050000  0.72248000  0.35262000  1.0 0.1317262271
H  H40  1  0.77752000  0.78950000  0.14738000  1.0 0.1317262271
H  H41  1  0.14738000  0.77752000  0.78950000  1.0 0.1317262271
H  H42  1  0.78950000  0.14738000  0.77752000  1.0 0.1317262271
H  H43  1  0.69938000  0.48342000  0.66520000  1.0 0.1317262271
H  H44  1  0.48342000  0.66520000  0.69938000  1.0 0.1317262271
H  H45  1  0.66520000  0.69938000  0.48342000  1.0 0.1317262271
H  H46  1  0.80062000  0.83480000  0.01658000  1.0 0.1317262271
H  H47  1  0.01658000  0.80062000  0.83480000  1.0 0.1317262271
H  H48  1  0.83480000  0.01658000  0.80062000  1.0 0.1317262271
C  C1  1  0.98382000  0.07908000  0.31030000  1.0 -0.0376564025
C  C2  1  0.31030000  0.98382000  0.07908000  1.0 -0.0376564025
C  C3  1  0.51618000  0.18970000  0.42092000  1.0 -0.0376564025
C  C4  1  0.18970000  0.42092000  0.51618000  1.0 -0.0376564025
C  C5  1  0.42092000  0.51618000  0.18970000  1.0 -0.0376564025
C  C6  1  0.07908000  0.31030000  0.98382000  1.0 -0.0376564025
C  C7  1  0.89812000  0.08268000  0.32970000  1.0 -0.2379840966
C  C8  1  0.32970000  0.89812000  0.08268000  1.0 -0.2379840966
C  C9  1  0.60188000  0.17030000  0.41732000  1.0 -0.2379840966
C  C10  1  0.17030000  0.41732000  0.60188000  1.0 -0.2379840966
C  C11  1  0.41732000  0.60188000  0.17030000  1.0 -0.2379840966
C  C12  1  0.08268000  0.32970000  0.89812000  1.0 -0.2379840966
C  C13  1  0.84302000  0.13578000  0.29090000  1.0 0.1227484302
C  C14  1  0.29090000  0.84302000  0.13578000  1.0 0.1227484302
C  C15  1  0.65698000  0.20910000  0.36422000  1.0 0.1227484302
C  C16  1  0.20910000  0.36422000  0.65698000  1.0 0.1227484302
C  C17  1  0.36422000  0.65698000  0.20910000  1.0 0.1227484302
C  C18  1  0.13578000  0.29090000  0.84302000  1.0 0.1227484302
C  C19  1  0.88252000  0.18218000  0.23350000  1.0 -0.2140414385
C  C20  1  0.23350000  0.88252000  0.18218000  1.0 -0.2153806059
C  C21  1  0.61748000  0.26650000  0.31782000  1.0 -0.2153806059
C  C22  1  0.26650000  0.31782000  0.61748000  1.0 -0.2140414385
C  C23  1  0.31782000  0.61748000  0.26650000  1.0 -0.2140414385
C  C24  1  0.18218000  0.23350000  0.88252000  1.0 -0.2153806059
C  C25  1  0.96382000  0.17208000  0.20850000  1.0 -0.0277728697
C  C26  1  0.20850000  0.96382000  0.17208000  1.0 -0.0277728697
C  C27  1  0.53618000  0.29150000  0.32792000  1.0 -0.0277728697
C  C28  1  0.29150000  0.32792000  0.53618000  1.0 -0.0277728697
C  C29  1  0.32792000  0.53618000  0.29150000  1.0 -0.0277728697
C  C30  1  0.17208000  0.20850000  0.96382000  1.0 -0.0277728697
C  C31  1  0.72412000  0.11008000  0.27380000  1.0 0.0210795565
C  C32  1  0.27380000  0.72412000  0.11008000  1.0 0.0210795565
C  C33  1  0.77588000  0.22620000  0.38992000  1.0 0.0210795565
C  C34  1  0.22620000  0.38992000  0.77588000  1.0 0.0210795565
C  C35  1  0.38992000  0.77588000  0.22620000  1.0 0.0210795565
C  C36  1  0.11008000  0.27380000  0.72412000  1.0 0.0210795565
C  C37  1  0.81832000  0.20678000  0.37420000  1.0 0.0065914701
C  C38  1  0.37420000  0.81832000  0.20678000  1.0 0.0065914701
C  C39  1  0.68168000  0.12580000  0.29322000  1.0 0.0065914701
C  C40  1  0.12580000  0.29322000  0.68168000  1.0 0.0065914701
C  C41  1  0.29322000  0.68168000  0.12580000  1.0 0.0065914701
C  C42  1  0.20678000  0.37420000  0.81832000  1.0 0.0065914701
C  C43  1  0.57908000  0.48382000  0.81030000  1.0 -0.0376564025
C  C44  1  0.48382000  0.81030000  0.57908000  1.0 -0.0376564025
C  C45  1  0.81030000  0.57908000  0.48382000  1.0 -0.0376564025
C  C46  1  0.92092000  0.68970000  0.01618000  1.0 -0.0376564025
C  C47  1  0.01618000  0.92092000  0.68970000  1.0 -0.0376564025
C  C48  1  0.68970000  0.01618000  0.92092000  1.0 -0.0376564025
C  C49  1  0.58268000  0.39812000  0.82970000  1.0 -0.2379840966
C  C50  1  0.39812000  0.82970000  0.58268000  1.0 -0.2379840966
C  C51  1  0.82970000  0.58268000  0.39812000  1.0 -0.2379840966
C  C52  1  0.91732000  0.67030000  0.10188000  1.0 -0.2379840966
C  C53  1  0.10188000  0.91732000  0.67030000  1.0 -0.2379840966
C  C54  1  0.67030000  0.10188000  0.91732000  1.0 -0.2379840966
C  C55  1  0.63578000  0.34302000  0.79090000  1.0 0.1227484302
C  C56  1  0.34302000  0.79090000  0.63578000  1.0 0.1227484302
C  C57  1  0.79090000  0.63578000  0.34302000  1.0 0.1227484302
C  C58  1  0.86422000  0.70910000  0.15698000  1.0 0.1227484302
C  C59  1  0.15698000  0.86422000  0.70910000  1.0 0.1227484302
C  C60  1  0.70910000  0.15698000  0.86422000  1.0 0.1227484302
C  C61  1  0.68218000  0.38252000  0.73350000  1.0 -0.2153806059
C  C62  1  0.38252000  0.73350000  0.68218000  1.0 -0.2153806059
C  C63  1  0.73350000  0.68218000  0.38252000  1.0 -0.2153806059
C  C64  1  0.81782000  0.76650000  0.11748000  1.0 -0.2153806059
C  C65  1  0.11748000  0.81782000  0.76650000  1.0 -0.2140414385
C  C66  1  0.76650000  0.11748000  0.81782000  1.0 -0.2140414385
C  C67  1  0.67208000  0.46382000  0.70850000  1.0 -0.0277728697
C  C68  1  0.46382000  0.70850000  0.67208000  1.0 -0.0277728697
C  C69  1  0.70850000  0.67208000  0.46382000  1.0 -0.0277728697
C  C70  1  0.82792000  0.79150000  0.03618000  1.0 -0.0277728697
C  C71  1  0.03618000  0.82792000  0.79150000  1.0 -0.0277728697
C  C72  1  0.79150000  0.03618000  0.82792000  1.0 -0.0277728697
C  C73  1  0.61008000  0.22412000  0.77380000  1.0 0.0210795565
C  C74  1  0.22412000  0.77380000  0.61008000  1.0 0.0210795565
C  C75  1  0.77380000  0.61008000  0.22412000  1.0 0.0210795565
C  C76  1  0.88992000  0.72620000  0.27588000  1.0 0.0210795565
C  C77  1  0.27588000  0.88992000  0.72620000  1.0 0.0210795565
C  C78  1  0.72620000  0.27588000  0.88992000  1.0 0.0210795565
C  C79  1  0.70678000  0.31832000  0.87420000  1.0 0.0065914701
C  C80  1  0.31832000  0.87420000  0.70678000  1.0 0.0065914701
C  C81  1  0.87420000  0.70678000  0.31832000  1.0 0.0065914701
C  C82  1  0.79322000  0.62580000  0.18168000  1.0 0.0065914701
C  C83  1  0.18168000  0.79322000  0.62580000  1.0 0.0065914701
C  C84  1  0.62580000  0.18168000  0.79322000  1.0 0.0065914701
N  N1  1  0.01252000  0.12108000  0.24950000  1.0 0.3183765666
N  N2  1  0.24950000  0.01252000  0.12108000  1.0 0.3183765666
N  N3  1  0.48748000  0.25050000  0.37892000  1.0 0.3183765666
N  N4  1  0.25050000  0.37892000  0.48748000  1.0 0.3183765666
N  N5  1  0.37892000  0.48748000  0.25050000  1.0 0.3183765666
N  N6  1  0.12108000  0.24950000  0.01252000  1.0 0.3183765666
N  N7  1  0.62108000  0.51252000  0.74950000  1.0 0.3183765666
N  N8  1  0.51252000  0.74950000  0.62108000  1.0 0.3183765666
N  N9  1  0.74950000  0.62108000  0.51252000  1.0 0.3183765666
N  N10  1  0.87892000  0.75050000  0.98748000  1.0 0.3183765666
N  N11  1  0.98748000  0.87892000  0.75050000  1.0 0.3183765666
N  N12  1  0.75050000  0.98748000  0.87892000  1.0 0.3183765666
Cl  Cl1  1  0.48329000  0.25000000  0.01671000  1.0 1.2070594362
Cl  Cl2  1  0.25000000  0.01671000  0.48329000  1.0 1.2070594362
Cl  Cl3  1  0.01671000  0.48329000  0.25000000  1.0 1.2070594362
Cl  Cl4  1  0.75000000  0.98329000  0.51671000  1.0 1.2070594362
Cl  Cl5  1  0.51671000  0.75000000  0.98329000  1.0 1.2070594362
Cl  Cl6  1  0.98329000  0.51671000  0.75000000  1.0 1.2070594362
O  O1  1  0.09402000  0.11468000  0.23110000  1.0 -0.6209183602
O  O2  1  0.23110000  0.09402000  0.11468000  1.0 -0.6209183602
O  O3  1  0.40598000  0.26890000  0.38532000  1.0 -0.6209183602
O  O4  1  0.26890000  0.38532000  0.40598000  1.0 -0.6209183602
O  O5  1  0.38532000  0.40598000  0.26890000  1.0 -0.6209183602
O  O6  1  0.11468000  0.23110000  0.09402000  1.0 -0.6209183602
O  O7  1  0.61468000  0.59402000  0.73110000  1.0 -0.6209183602
O  O8  1  0.59402000  0.73110000  0.61468000  1.0 -0.6209183602
O  O9  1  0.73110000  0.61468000  0.59402000  1.0 -0.6209183602
O  O10  1  0.88532000  0.76890000  0.90598000  1.0 -0.6209183602
O  O11  1  0.90598000  0.88532000  0.76890000  1.0 -0.6209183602
O  O12  1  0.76890000  0.90598000  0.88532000  1.0 -0.6209183602
O  O13  1  0.51328000  0.33960000  0.12302000  1.0 -0.3674233673
O  O14  1  0.37698000  0.16040000  0.98672000  1.0 -0.3674233673
O  O15  1  0.56698000  0.22820000  0.04992000  1.0 -0.4222714596
O  O16  1  0.45008000  0.27180000  0.93302000  1.0 -0.4222714596
O  O17  1  0.16040000  0.98672000  0.37698000  1.0 -0.3674233673
O  O18  1  0.33960000  0.12302000  0.51328000  1.0 -0.3674233673
O  O19  1  0.27180000  0.93302000  0.45008000  1.0 -0.4222714596
O  O20  1  0.22820000  0.04992000  0.56698000  1.0 -0.4222714596
O  O21  1  0.98672000  0.37698000  0.16040000  1.0 -0.3674233673
O  O22  1  0.12302000  0.51328000  0.33960000  1.0 -0.3674233673
O  O23  1  0.93302000  0.45008000  0.27180000  1.0 -0.4222714596
O  O24  1  0.04992000  0.56698000  0.22820000  1.0 -0.4222714596
O  O25  1  0.66040000  0.87698000  0.48672000  1.0 -0.3674233673
O  O26  1  0.83960000  0.01328000  0.62302000  1.0 -0.3674233673
O  O27  1  0.77180000  0.95008000  0.43302000  1.0 -0.4222714596
O  O28  1  0.72820000  0.06698000  0.54992000  1.0 -0.4222714596
O  O29  1  0.48672000  0.66040000  0.87698000  1.0 -0.3674233673
O  O30  1  0.62302000  0.83960000  0.01328000  1.0 -0.3674233673
O  O31  1  0.43302000  0.77180000  0.95008000  1.0 -0.4222714596
O  O32  1  0.54992000  0.72820000  0.06698000  1.0 -0.4222714596
O  O33  1  0.87698000  0.48672000  0.66040000  1.0 -0.3674233673
O  O34  1  0.01328000  0.62302000  0.83960000  1.0 -0.3674233673
O  O35  1  0.95008000  0.43302000  0.77180000  1.0 -0.4222714596
O  O36  1  0.06698000  0.54992000  0.72820000  1.0 -0.4222714596
