# DDEC6 charges by PACMAN v1.1 (https://github.com/mtap-research/PACMAN-charge/)
data_WUHMAP_FSR_pacman
_symmetry_space_group_name_H-M   'P 1'
_cell_length_a   15.98330000
_cell_length_b   15.98330000
_cell_length_c   15.98330000
_cell_angle_alpha   118.06500000
_cell_angle_beta   118.06500000
_cell_angle_gamma   118.06500000
_symmetry_Int_Tables_number   1
_chemical_formula_structural   CdPC3NO4
_chemical_formula_sum   'Cd6 P6 C18 N6 O24'
_cell_volume   1459.08819086
_cell_formula_units_Z   6
loop_
 _symmetry_equiv_pos_site_id
 _symmetry_equiv_pos_as_xyz
  1  'x, y, z'
loop_
 _atom_site_type_symbol
 _atom_site_label
 _atom_site_symmetry_multiplicity
 _atom_site_fract_x
 _atom_site_fract_y
 _atom_site_fract_z
 _atom_site_occupancy
 _atom_site_charge
Cd  Cd1  1  0.41202000  0.98364000  0.64374000  1.0 1.0971209836
Cd  Cd2  1  0.64374000  0.41202000  0.98364000  1.0 1.0971209836
Cd  Cd3  1  0.98364000  0.64374000  0.41202000  1.0 1.0971209836
Cd  Cd4  1  0.58798000  0.01636000  0.35626000  1.0 1.0971209836
Cd  Cd5  1  0.35626000  0.58798000  0.01636000  1.0 1.0971209836
Cd  Cd6  1  0.01636000  0.35626000  0.58798000  1.0 1.0971209836
P  P1  1  0.14150000  0.95730000  0.49120000  1.0 1.2990935875
P  P2  1  0.49120000  0.14150000  0.95730000  1.0 1.2990935875
P  P3  1  0.95730000  0.49120000  0.14150000  1.0 1.2990935875
P  P4  1  0.85850000  0.04270000  0.50880000  1.0 1.2990935875
P  P5  1  0.50880000  0.85850000  0.04270000  1.0 1.2990935875
P  P6  1  0.04270000  0.50880000  0.85850000  1.0 1.2990935875
C  C1  1  0.20130000  0.09660000  0.67010000  1.0 -0.2246273774
C  C2  1  0.67010000  0.20130000  0.09660000  1.0 -0.2246273774
C  C3  1  0.09660000  0.67010000  0.20130000  1.0 -0.2261874768
C  C4  1  0.79870000  0.90340000  0.32990000  1.0 -0.2261874768
C  C5  1  0.32990000  0.79870000  0.90340000  1.0 -0.2261874768
C  C6  1  0.90340000  0.32990000  0.79870000  1.0 -0.2261874768
C  C7  1  0.44320000  0.39900000  0.00180000  1.0 0.1374362963
C  C8  1  0.00180000  0.44320000  0.39900000  1.0 0.1374362963
C  C9  1  0.39900000  0.00180000  0.44320000  1.0 0.1374362963
C  C10  1  0.55680000  0.60100000  0.99820000  1.0 0.1374362963
C  C11  1  0.99820000  0.55680000  0.60100000  1.0 0.1374362963
C  C12  1  0.60100000  0.99820000  0.55680000  1.0 0.1374362963
C  C13  1  0.36550000  0.36730000  0.80220000  1.0 0.1112039929
C  C14  1  0.80220000  0.36550000  0.36730000  1.0 0.1112039929
C  C15  1  0.36730000  0.80220000  0.36550000  1.0 0.1112039929
C  C16  1  0.63450000  0.63270000  0.19780000  1.0 0.1112039929
C  C17  1  0.19780000  0.63450000  0.63270000  1.0 0.1112039929
C  C18  1  0.63270000  0.19780000  0.63450000  1.0 0.1112039929
N  N1  1  0.41300000  0.32900000  0.86800000  1.0 -0.0559171269
N  N2  1  0.86800000  0.41300000  0.32900000  1.0 -0.0559171269
N  N3  1  0.32900000  0.86800000  0.41300000  1.0 -0.0559171269
N  N4  1  0.58700000  0.67100000  0.13200000  1.0 -0.0559171269
N  N5  1  0.13200000  0.58700000  0.67100000  1.0 -0.0559171269
N  N6  1  0.67100000  0.13200000  0.58700000  1.0 -0.0559171269
O  O1  1  0.06690000  0.94350000  0.37560000  1.0 -0.5433351266
O  O2  1  0.37560000  0.06690000  0.94350000  1.0 -0.5433351266
O  O3  1  0.94350000  0.37560000  0.06690000  1.0 -0.5464537608
O  O4  1  0.93310000  0.05650000  0.62440000  1.0 -0.5464537608
O  O5  1  0.62440000  0.93310000  0.05650000  1.0 -0.5464537608
O  O6  1  0.05650000  0.62440000  0.93310000  1.0 -0.5464537608
O  O7  1  0.33720000  0.07420000  0.62260000  1.0 -0.7474559116
O  O8  1  0.62260000  0.33720000  0.07420000  1.0 -0.7447242903
O  O9  1  0.07420000  0.62260000  0.33720000  1.0 -0.7474559116
O  O10  1  0.66280000  0.92580000  0.37740000  1.0 -0.7474559116
O  O11  1  0.37740000  0.66280000  0.92580000  1.0 -0.7474559116
O  O12  1  0.92580000  0.37740000  0.66280000  1.0 -0.7474559116
O  O13  1  0.97230000  0.74510000  0.34760000  1.0 -0.7230213848
O  O14  1  0.34760000  0.97230000  0.74510000  1.0 -0.7230213848
O  O15  1  0.74510000  0.34760000  0.97230000  1.0 -0.7230213848
O  O16  1  0.02770000  0.25490000  0.65240000  1.0 -0.7230213848
O  O17  1  0.65240000  0.02770000  0.25490000  1.0 -0.7230213848
O  O18  1  0.25490000  0.65240000  0.02770000  1.0 -0.7230213848
O  O19  1  0.56100000  0.97240000  0.75260000  1.0 -0.3428981247
O  O20  1  0.75260000  0.56100000  0.97240000  1.0 -0.3477437365
O  O21  1  0.97240000  0.75260000  0.56100000  1.0 -0.3676680493
O  O22  1  0.43900000  0.02760000  0.24740000  1.0 -0.3428981247
O  O23  1  0.24740000  0.43900000  0.02760000  1.0 -0.3428981247
O  O24  1  0.02760000  0.24740000  0.43900000  1.0 -0.3428981247
