# DDEC6 charges by PACMAN v1.1 (https://github.com/mtap-research/PACMAN-charge/)
data_WUJSEB_FSR_pacman
_symmetry_space_group_name_H-M   'P 1'
_cell_length_a   14.00910000
_cell_length_b   14.00910000
_cell_length_c   21.88430000
_cell_angle_alpha   81.87950000
_cell_angle_beta   98.12050000
_cell_angle_gamma   97.89700000
_symmetry_Int_Tables_number   1
_chemical_formula_structural   Na4Mn2Mo12P8H20O69
_chemical_formula_sum   'Na8 Mn4 Mo24 P16 H40 O138'
_cell_volume   4178.87411795
_cell_formula_units_Z   2
loop_
 _symmetry_equiv_pos_site_id
 _symmetry_equiv_pos_as_xyz
  1  'x, y, z'
loop_
 _atom_site_type_symbol
 _atom_site_label
 _atom_site_symmetry_multiplicity
 _atom_site_fract_x
 _atom_site_fract_y
 _atom_site_fract_z
 _atom_site_occupancy
 _atom_site_charge
Na  Na1  1  0.36120000  0.45980000  0.35450000  1.0 0.882892873
Na  Na2  1  0.45980000  0.36120000  0.14550000  1.0 0.882892873
Na  Na3  1  0.63880000  0.54020000  0.64550000  1.0 0.882892873
Na  Na4  1  0.54020000  0.63880000  0.85450000  1.0 0.882892873
Na  Na5  1  0.58293000  0.27227000  0.56798000  1.0 0.882892873
Na  Na6  1  0.27227000  0.58293000  0.93202000  1.0 0.882892873
Na  Na7  1  0.41707000  0.72773000  0.43202000  1.0 0.882892873
Na  Na8  1  0.72773000  0.41707000  0.06798000  1.0 0.8856539985
Mn  Mn1  1  0.50000000  0.50000000  0.50000000  1.0 1.1915679833
Mn  Mn2  1  0.50000000  0.50000000  0.00000000  1.0 1.1915679833
Mn  Mn3  1  0.00000000  0.50000000  0.50000000  1.0 1.1700009963
Mn  Mn4  1  0.50000000  0.00000000  0.00000000  1.0 1.1700009963
Mo  Mo1  1  0.10868000  0.40948000  0.36994000  1.0 1.9707701267
Mo  Mo2  1  0.40948000  0.10868000  0.13006000  1.0 1.9707701267
Mo  Mo3  1  0.89132000  0.59052000  0.63006000  1.0 1.9707701267
Mo  Mo4  1  0.59052000  0.89132000  0.86994000  1.0 1.9707701267
Mo  Mo5  1  0.21426000  0.41320000  0.61415000  1.0 1.9918594023
Mo  Mo6  1  0.41320000  0.21426000  0.88585000  1.0 1.9962900937
Mo  Mo7  1  0.78574000  0.58680000  0.38585000  1.0 1.9962900937
Mo  Mo8  1  0.58680000  0.78574000  0.11415000  1.0 1.9962900937
Mo  Mo9  1  0.11204000  0.66202000  0.36614000  1.0 1.9618180653
Mo  Mo10  1  0.66202000  0.11204000  0.13386000  1.0 1.9618180653
Mo  Mo11  1  0.88796000  0.33798000  0.63386000  1.0 1.9618180653
Mo  Mo12  1  0.33798000  0.88796000  0.86614000  1.0 1.9618180653
Mo  Mo13  1  0.21581000  0.59947000  0.61006000  1.0 1.9618180653
Mo  Mo14  1  0.59947000  0.21581000  0.88994000  1.0 1.9707701267
Mo  Mo15  1  0.78419000  0.40053000  0.38994000  1.0 1.9707701267
Mo  Mo16  1  0.40053000  0.78419000  0.11006000  1.0 1.9618180653
Mo  Mo17  1  0.15540000  0.30534000  0.47512000  1.0 1.9918594023
Mo  Mo18  1  0.30534000  0.15540000  0.02488000  1.0 1.9918594023
Mo  Mo19  1  0.84460000  0.69466000  0.52488000  1.0 1.9918594023
Mo  Mo20  1  0.69466000  0.84460000  0.97512000  1.0 1.9918594023
Mo  Mo21  1  0.15848000  0.74228000  0.46704000  1.0 1.9809855482
Mo  Mo22  1  0.74228000  0.15848000  0.03296000  1.0 1.9809855482
Mo  Mo23  1  0.84152000  0.25772000  0.53296000  1.0 1.9809855482
Mo  Mo24  1  0.25772000  0.84152000  0.96704000  1.0 1.9809855482
P  P1  1  0.26673000  0.53721000  0.47252000  1.0 1.5104489586
P  P2  1  0.53721000  0.26673000  0.02748000  1.0 1.5104489586
P  P3  1  0.73327000  0.46279000  0.52748000  1.0 1.5104489586
P  P4  1  0.46279000  0.73327000  0.97252000  1.0 1.5104489586
P  P5  1  0.36220000  0.79578000  0.56071000  1.0 1.5711175612
P  P6  1  0.79578000  0.36220000  0.93929000  1.0 1.5711175612
P  P7  1  0.63780000  0.20422000  0.43929000  1.0 1.5711175612
P  P8  1  0.20422000  0.63780000  0.06071000  1.0 1.5711175612
P  P9  1  0.18257000  0.56503000  0.25504000  1.0 1.5711175612
P  P10  1  0.56503000  0.18257000  0.24496000  1.0 1.5711175612
P  P11  1  0.81743000  0.43497000  0.74496000  1.0 1.5711175612
P  P12  1  0.43497000  0.81743000  0.75504000  1.0 1.5711175612
P  P13  1  0.36137000  0.28729000  0.56546000  1.0 1.5793180725
P  P14  1  0.28729000  0.36137000  0.93454000  1.0 1.5793180725
P  P15  1  0.63863000  0.71271000  0.43454000  1.0 1.5793180725
P  P16  1  0.71271000  0.63863000  0.06546000  1.0 1.5793180725
H  H1  1  0.59260000  0.30840000  0.69080000  1.0 0.3552919885
H  H2  1  0.30840000  0.59260000  0.80920000  1.0 0.3552919885
H  H3  1  0.40740000  0.69160000  0.30920000  1.0 0.3552919885
H  H4  1  0.69160000  0.40740000  0.19080000  1.0 0.3552919885
H  H5  1  0.66666667  0.24490000  0.69160000  1.0 0.3989478485
H  H6  1  0.24490000  0.66666667  0.80840000  1.0 0.3989478485
H  H7  1  0.33333333  0.75510000  0.30840000  1.0 0.3989478485
H  H8  1  0.75510000  0.33333333  0.19160000  1.0 0.3989478485
H  H9  1  0.28100000  0.60700000  0.19400000  1.0 0.3862277789
H  H10  1  0.60700000  0.28100000  0.30600000  1.0 0.3862277789
H  H11  1  0.71900000  0.39300000  0.80600000  1.0 0.3862277789
H  H12  1  0.39300000  0.71900000  0.69400000  1.0 0.3862277789
H  H13  1  0.40200000  0.88600000  0.62700000  1.0 0.3989478485
H  H14  1  0.88600000  0.40200000  0.87300000  1.0 0.3989478485
H  H15  1  0.59800000  0.11400000  0.37300000  1.0 0.3989478485
H  H16  1  0.11400000  0.59800000  0.12700000  1.0 0.3989478485
H  H17  1  0.07400000  0.31200000  0.56800000  1.0 0.3989478485
H  H18  1  0.31200000  0.07400000  0.93200000  1.0 0.3989478485
H  H19  1  0.92600000  0.68800000  0.43200000  1.0 0.3989478485
H  H20  1  0.68800000  0.92600000  0.06800000  1.0 0.3989478485
H  H21  1  0.55300000  0.44100000  0.40200000  1.0 0.3314669689
H  H22  1  0.44100000  0.55300000  0.09800000  1.0 0.3314669689
H  H23  1  0.44700000  0.55900000  0.59800000  1.0 0.3314669689
H  H24  1  0.55900000  0.44700000  0.90200000  1.0 0.3314669689
H  H25  1  0.07500000  0.68100000  0.55700000  1.0 0.3862277789
H  H26  1  0.68100000  0.07500000  0.94300000  1.0 0.3862277789
H  H27  1  0.92500000  0.31900000  0.44300000  1.0 0.3862277789
H  H28  1  0.31900000  0.92500000  0.05700000  1.0 0.3862277789
H  H29  1  0.40600000  0.16600000  0.63000000  1.0 0.4279500803
H  H30  1  0.16600000  0.40600000  0.87000000  1.0 0.4279500803
H  H31  1  0.59400000  0.83400000  0.37000000  1.0 0.4279500803
H  H32  1  0.83400000  0.59400000  0.13000000  1.0 0.4279500803
H  H33  1  0.52200000  0.35600000  0.43200000  1.0 0.3506905025
H  H34  1  0.35600000  0.52200000  0.06800000  1.0 0.3506905025
H  H35  1  0.47800000  0.64400000  0.56800000  1.0 0.3506905025
H  H36  1  0.64400000  0.47800000  0.93200000  1.0 0.3506905025
H  H37  1  0.99500000  0.52700000  0.35900000  1.0 0.3745479246
H  H38  1  0.52700000  0.99500000  0.14100000  1.0 0.3745479246
H  H39  1  0.00500000  0.47300000  0.64100000  1.0 0.3745479246
H  H40  1  0.47300000  0.00500000  0.85900000  1.0 0.3745479246
O  O1  1  0.05992000  0.63390000  0.44693000  1.0 -0.9130564967
O  O2  1  0.63390000  0.05992000  0.05307000  1.0 -0.9130564967
O  O3  1  0.94008000  0.36610000  0.55307000  1.0 -0.9130564967
O  O4  1  0.36610000  0.94008000  0.94693000  1.0 -0.9130564967
O  O5  1  0.05627000  0.39633000  0.45071000  1.0 -0.9183021972
O  O6  1  0.39633000  0.05627000  0.04929000  1.0 -0.9183021972
O  O7  1  0.94373000  0.60367000  0.54929000  1.0 -0.9183021972
O  O8  1  0.60367000  0.94373000  0.95071000  1.0 -0.9183021972
O  O9  1  0.03265000  0.53077000  0.34231000  1.0 -0.6822708586
O  O10  1  0.53077000  0.03265000  0.15769000  1.0 -0.6822708586
O  O11  1  0.96735000  0.46923000  0.65769000  1.0 -0.6822708586
O  O12  1  0.46923000  0.96735000  0.84231000  1.0 -0.6822708586
O  O13  1  0.24216000  0.43938000  0.51242000  1.0 -0.8632231692
O  O14  1  0.43938000  0.24216000  0.98758000  1.0 -0.8632231692
O  O15  1  0.75784000  0.56062000  0.48758000  1.0 -0.8632231692
O  O16  1  0.56062000  0.75784000  0.01242000  1.0 -0.8632231692
O  O17  1  0.11482000  0.49966000  0.57930000  1.0 -0.9130564967
O  O18  1  0.49966000  0.11482000  0.92070000  1.0 -0.9130564967
O  O19  1  0.88518000  0.50034000  0.42070000  1.0 -0.9130564967
O  O20  1  0.50034000  0.88518000  0.07930000  1.0 -0.9130564967
O  O21  1  0.22346000  0.34724000  0.40325000  1.0 -0.8490593845
O  O22  1  0.34724000  0.22346000  0.09675000  1.0 -0.8490593845
O  O23  1  0.77654000  0.65276000  0.59675000  1.0 -0.8490593845
O  O24  1  0.65276000  0.77654000  0.90325000  1.0 -0.8490593845
O  O25  1  0.31895000  0.51741000  0.62420000  1.0 -0.7880824694
O  O26  1  0.51741000  0.31895000  0.87580000  1.0 -0.7880824694
O  O27  1  0.68105000  0.48259000  0.37580000  1.0 -0.7880824694
O  O28  1  0.48259000  0.68105000  0.12420000  1.0 -0.7880824694
O  O29  1  0.12691000  0.70187000  0.55964000  1.0 -0.7474851871
O  O30  1  0.70187000  0.12691000  0.94036000  1.0 -0.7474851871
O  O31  1  0.87309000  0.29813000  0.44036000  1.0 -0.7474851871
O  O32  1  0.29813000  0.87309000  0.05964000  1.0 -0.7474851871
O  O33  1  0.24645000  0.61837000  0.50928000  1.0 -0.8688123861
O  O34  1  0.61837000  0.24645000  0.99072000  1.0 -0.8688123861
O  O35  1  0.75355000  0.38163000  0.49072000  1.0 -0.8688123861
O  O36  1  0.38163000  0.75355000  0.00928000  1.0 -0.8688123861
O  O37  1  0.19604000  0.53962000  0.41167000  1.0 -0.8688123861
O  O38  1  0.53962000  0.19604000  0.08833000  1.0 -0.8688123861
O  O39  1  0.80396000  0.46038000  0.58833000  1.0 -0.8688123861
O  O40  1  0.46038000  0.80396000  0.91167000  1.0 -0.8688123861
O  O41  1  0.31979000  0.32357000  0.61810000  1.0 -0.7615029304
O  O42  1  0.32357000  0.31979000  0.88190000  1.0 -0.7615029304
O  O43  1  0.68021000  0.67643000  0.38190000  1.0 -0.7615029304
O  O44  1  0.67643000  0.68021000  0.11810000  1.0 -0.7615029304
O  O45  1  0.12710000  0.30568000  0.56739000  1.0 -0.7615029304
O  O46  1  0.30568000  0.12710000  0.93261000  1.0 -0.7615029304
O  O47  1  0.87290000  0.69432000  0.43261000  1.0 -0.7615029304
O  O48  1  0.69432000  0.87290000  0.06739000  1.0 -0.7615029304
O  O49  1  0.36938000  0.55252000  0.45704000  1.0 -0.8632231692
O  O50  1  0.55252000  0.36938000  0.04296000  1.0 -0.8632231692
O  O51  1  0.63062000  0.44748000  0.54296000  1.0 -0.8632231692
O  O52  1  0.44748000  0.63062000  0.95704000  1.0 -0.8632231692
O  O53  1  0.32304000  0.71826000  0.61186000  1.0 -0.8027215937
O  O54  1  0.71826000  0.32304000  0.88814000  1.0 -0.8027215937
O  O55  1  0.67696000  0.28174000  0.38814000  1.0 -0.8027215937
O  O56  1  0.28174000  0.67696000  0.11186000  1.0 -0.8027215937
O  O57  1  0.22772000  0.74376000  0.39687000  1.0 -0.8490593845
O  O58  1  0.74376000  0.22772000  0.10313000  1.0 -0.8490593845
O  O59  1  0.77228000  0.25624000  0.60313000  1.0 -0.8490593845
O  O60  1  0.25624000  0.77228000  0.89687000  1.0 -0.8490593845
O  O61  1  0.43741000  0.35887000  0.53784000  1.0 -0.823046554
O  O62  1  0.35887000  0.43741000  0.96216000  1.0 -0.823046554
O  O63  1  0.56259000  0.64113000  0.46216000  1.0 -0.823046554
O  O64  1  0.64113000  0.56259000  0.03784000  1.0 -0.823046554
O  O65  1  0.18355000  0.37663000  0.68591000  1.0 -0.570730674
O  O66  1  0.37663000  0.18355000  0.81409000  1.0 -0.570730674
O  O67  1  0.81645000  0.62337000  0.31409000  1.0 -0.570730674
O  O68  1  0.62337000  0.81645000  0.18591000  1.0 -0.570730674
O  O69  1  0.27960000  0.25026000  0.51704000  1.0 -0.7474851871
O  O70  1  0.25026000  0.27960000  0.98296000  1.0 -0.7474851871
O  O71  1  0.72040000  0.74974000  0.48296000  1.0 -0.7474851871
O  O72  1  0.74974000  0.72040000  0.01704000  1.0 -0.7474851871
O  O73  1  0.18945000  0.46995000  0.29883000  1.0 -0.8093930224
O  O74  1  0.46995000  0.18945000  0.20117000  1.0 -0.8093930224
O  O75  1  0.81055000  0.53005000  0.70117000  1.0 -0.8093930224
O  O76  1  0.53005000  0.81055000  0.79883000  1.0 -0.8093930224
O  O77  1  0.03266000  0.32754000  0.33218000  1.0 -0.5612283388
O  O78  1  0.32754000  0.03266000  0.16782000  1.0 -0.5612283388
O  O79  1  0.96734000  0.67246000  0.66782000  1.0 -0.5612283388
O  O80  1  0.67246000  0.96734000  0.83218000  1.0 -0.5612283388
O  O81  1  0.18653000  0.65047000  0.29326000  1.0 -0.7788148934
O  O82  1  0.65047000  0.18653000  0.20674000  1.0 -0.7788148934
O  O83  1  0.81347000  0.34953000  0.70674000  1.0 -0.7788148934
O  O84  1  0.34953000  0.81347000  0.79326000  1.0 -0.7788148934
O  O85  1  0.09104000  0.19842000  0.46286000  1.0 -0.5486300627
O  O86  1  0.19842000  0.09104000  0.03714000  1.0 -0.5486300627
O  O87  1  0.90896000  0.80158000  0.53714000  1.0 -0.5486300627
O  O88  1  0.80158000  0.90896000  0.96286000  1.0 -0.5486300627
O  O89  1  0.41376000  0.19584000  0.59408000  1.0 -0.6475546101
O  O90  1  0.19584000  0.41376000  0.90592000  1.0 -0.6475546101
O  O91  1  0.58624000  0.80416000  0.40592000  1.0 -0.6475546101
O  O92  1  0.80416000  0.58624000  0.09408000  1.0 -0.6475546101
O  O93  1  0.18652000  0.60756000  0.68045000  1.0 -0.5792247649
O  O94  1  0.60756000  0.18652000  0.81955000  1.0 -0.570730674
O  O95  1  0.81348000  0.39244000  0.31955000  1.0 -0.5792247649
O  O96  1  0.39244000  0.81348000  0.18045000  1.0 -0.5792247649
O  O97  1  0.28164000  0.81684000  0.50736000  1.0 -0.7788148934
O  O98  1  0.81684000  0.28164000  0.99264000  1.0 -0.7788148934
O  O99  1  0.71836000  0.18316000  0.49264000  1.0 -0.7788148934
O  O100  1  0.18316000  0.71836000  0.00736000  1.0 -0.7788148934
O  O101  1  0.03481000  0.73779000  0.32713000  1.0 -0.570730674
O  O102  1  0.73779000  0.03481000  0.17287000  1.0 -0.570730674
O  O103  1  0.96519000  0.26221000  0.67287000  1.0 -0.570730674
O  O104  1  0.26221000  0.96519000  0.82713000  1.0 -0.570730674
O  O105  1  0.09472000  0.83786000  0.45251000  1.0 -0.5440667609
O  O106  1  0.83786000  0.09472000  0.04749000  1.0 -0.5440667609
O  O107  1  0.90528000  0.16214000  0.54749000  1.0 -0.5440667609
O  O108  1  0.16214000  0.90528000  0.95251000  1.0 -0.5440667609
O  O109  1  0.28179000  0.57961000  0.22663000  1.0 -0.570730674
O  O110  1  0.57961000  0.28179000  0.27337000  1.0 -0.570730674
O  O111  1  0.71821000  0.42039000  0.77337000  1.0 -0.570730674
O  O112  1  0.42039000  0.71821000  0.72663000  1.0 -0.570730674
O  O113  1  0.50610000  0.42370000  0.41670000  1.0 -0.712879453
O  O114  1  0.42370000  0.50610000  0.08330000  1.0 -0.712879453
O  O115  1  0.49390000  0.57630000  0.58330000  1.0 -0.712879453
O  O116  1  0.57630000  0.49390000  0.91670000  1.0 -0.712879453
O  O117  1  0.38730000  0.89290000  0.58930000  1.0 -0.5792247649
O  O118  1  0.89290000  0.38730000  0.91070000  1.0 -0.5792247649
O  O119  1  0.61270000  0.10710000  0.41070000  1.0 -0.5792247649
O  O120  1  0.10710000  0.61270000  0.08930000  1.0 -0.5792247649
O  O121  1  0.44850000  0.76690000  0.53790000  1.0 -0.8093930224
O  O122  1  0.76690000  0.44850000  0.96210000  1.0 -0.8093930224
O  O123  1  0.55150000  0.23310000  0.46210000  1.0 -0.8093930224
O  O124  1  0.23310000  0.55150000  0.03790000  1.0 -0.8093930224
O  O125  1  0.09917000  0.56243000  0.20433000  1.0 -0.7187731007
O  O126  1  0.56243000  0.09917000  0.29567000  1.0 -0.7187731007
O  O127  1  0.90083000  0.43757000  0.79567000  1.0 -0.7187731007
O  O128  1  0.43757000  0.90083000  0.70433000  1.0 -0.7187731007
O  O129  1  0.40750000  0.40750000  0.25000000  1.0 -0.3818883637
O  O130  1  0.59250000  0.59250000  0.75000000  1.0 -0.3818883637
O  O131  1  0.49640000  0.58960000  0.30230000  1.0 -0.0987800399
O  O132  1  0.58960000  0.49640000  0.19770000  1.0 -0.0987800399
O  O133  1  0.50360000  0.41040000  0.69770000  1.0 -0.1096255967
O  O134  1  0.41040000  0.50360000  0.80230000  1.0 -0.1096255967
O  O135  1  0.61070000  0.26030000  0.67690000  1.0 -0.7615029304
O  O136  1  0.26030000  0.61070000  0.82310000  1.0 -0.7615029304
O  O137  1  0.38930000  0.73970000  0.32310000  1.0 -0.7615029304
O  O138  1  0.73970000  0.38930000  0.17690000  1.0 -0.7615029304
