# DDEC6 charges by PACMAN v1.1 (https://github.com/mtap-research/PACMAN-charge/)
data_WUNSII01_ASR_pacman
_symmetry_space_group_name_H-M   'P 1'
_cell_length_a   15.89000000
_cell_length_b   15.89000000
_cell_length_c   21.70600000
_cell_angle_alpha   90.00000000
_cell_angle_beta   90.00000000
_cell_angle_gamma   90.00000000
_symmetry_Int_Tables_number   1
_chemical_formula_structural   CdH36(C4N)12
_chemical_formula_sum   'Cd4 H144 C192 N48'
_cell_volume   5480.59352260
_cell_formula_units_Z   4
loop_
 _symmetry_equiv_pos_site_id
 _symmetry_equiv_pos_as_xyz
  1  'x, y, z'
loop_
 _atom_site_type_symbol
 _atom_site_label
 _atom_site_symmetry_multiplicity
 _atom_site_fract_x
 _atom_site_fract_y
 _atom_site_fract_z
 _atom_site_occupancy
 _atom_site_charge
Cd  Cd1  1  0.94223000  0.94223000  0.00000000  1.0 0.6431972533
Cd  Cd2  1  0.05777000  0.05777000  0.50000000  1.0 0.6431972533
Cd  Cd3  1  0.55777000  0.44223000  0.75000000  1.0 0.6431972533
Cd  Cd4  1  0.44223000  0.55777000  0.25000000  1.0 0.6431972533
H  H1  1  0.63820000  0.27040000  0.79110000  1.0 0.0929641227
H  H2  1  0.36180000  0.72960000  0.29110000  1.0 0.0929641227
H  H3  1  0.22960000  0.13820000  0.54110000  1.0 0.0929641227
H  H4  1  0.77040000  0.86180000  0.04110000  1.0 0.0929641227
H  H5  1  0.86180000  0.77040000  0.95890000  1.0 0.0929641227
H  H6  1  0.13820000  0.22960000  0.45890000  1.0 0.0929641227
H  H7  1  0.27040000  0.63820000  0.20890000  1.0 0.0929641227
H  H8  1  0.72960000  0.36180000  0.70890000  1.0 0.0929641227
H  H9  1  0.73890000  0.21370000  0.85510000  1.0 0.1271015606
H  H10  1  0.26110000  0.78630000  0.35510000  1.0 0.1271015606
H  H11  1  0.28630000  0.23890000  0.60510000  1.0 0.1271015606
H  H12  1  0.71370000  0.76110000  0.10510000  1.0 0.1271015606
H  H13  1  0.76110000  0.71370000  0.89490000  1.0 0.1271015606
H  H14  1  0.23890000  0.28630000  0.39490000  1.0 0.1271015606
H  H15  1  0.21370000  0.73890000  0.14490000  1.0 0.1271015606
H  H16  1  0.78630000  0.26110000  0.64490000  1.0 0.1271015606
H  H17  1  0.71560000  0.41880000  0.96310000  1.0 0.1271015606
H  H18  1  0.28440000  0.58120000  0.46310000  1.0 0.1271015606
H  H19  1  0.08120000  0.21560000  0.71310000  1.0 0.1271015606
H  H20  1  0.91880000  0.78440000  0.21310000  1.0 0.1271015606
H  H21  1  0.78440000  0.91880000  0.78690000  1.0 0.1271015606
H  H22  1  0.21560000  0.08120000  0.28690000  1.0 0.1271015606
H  H23  1  0.41880000  0.71560000  0.03690000  1.0 0.1271015606
H  H24  1  0.58120000  0.28440000  0.53690000  1.0 0.1271015606
H  H25  1  0.61160000  0.46290000  0.89870000  1.0 0.1014546547
H  H26  1  0.38840000  0.53710000  0.39870000  1.0 0.1014546547
H  H27  1  0.03710000  0.11160000  0.64870000  1.0 0.1014546547
H  H28  1  0.96290000  0.88840000  0.14870000  1.0 0.1014546547
H  H29  1  0.88840000  0.96290000  0.85130000  1.0 0.1014546547
H  H30  1  0.11160000  0.03710000  0.35130000  1.0 0.1014546547
H  H31  1  0.46290000  0.61160000  0.10130000  1.0 0.1014546547
H  H32  1  0.53710000  0.38840000  0.60130000  1.0 0.1014546547
H  H33  1  0.79810000  0.35230000  0.02900000  1.0 0.0929641227
H  H34  1  0.20190000  0.64770000  0.52900000  1.0 0.0929641227
H  H35  1  0.14770000  0.29810000  0.77900000  1.0 0.0929641227
H  H36  1  0.85230000  0.70190000  0.27900000  1.0 0.0929641227
H  H37  1  0.70190000  0.85230000  0.72100000  1.0 0.0929641227
H  H38  1  0.29810000  0.14770000  0.22100000  1.0 0.0929641227
H  H39  1  0.35230000  0.79810000  0.97100000  1.0 0.0929641227
H  H40  1  0.64770000  0.20190000  0.47100000  1.0 0.0929641227
H  H41  1  0.91140000  0.30140000  0.08450000  1.0 0.1093883464
H  H42  1  0.08860000  0.69860000  0.58450000  1.0 0.1093883464
H  H43  1  0.19860000  0.41140000  0.83450000  1.0 0.1093883464
H  H44  1  0.80140000  0.58860000  0.33450000  1.0 0.1093883464
H  H45  1  0.58860000  0.80140000  0.66550000  1.0 0.1093883464
H  H46  1  0.41140000  0.19860000  0.16550000  1.0 0.1093883464
H  H47  1  0.30140000  0.91140000  0.91550000  1.0 0.1093883464
H  H48  1  0.69860000  0.08860000  0.41550000  1.0 0.1093883464
H  H49  1  0.00190000  0.20280000  0.04170000  1.0 0.1093883464
H  H50  1  0.99810000  0.79720000  0.54170000  1.0 0.1093883464
H  H51  1  0.29720000  0.50190000  0.79170000  1.0 0.1093883464
H  H52  1  0.70280000  0.49810000  0.29170000  1.0 0.1093883464
H  H53  1  0.49810000  0.70280000  0.70830000  1.0 0.1093883464
H  H54  1  0.50190000  0.29720000  0.20830000  1.0 0.1093883464
H  H55  1  0.20280000  0.00190000  0.95830000  1.0 0.1093883464
H  H56  1  0.79720000  0.99810000  0.45830000  1.0 0.1093883464
H  H57  1  0.86070000  0.19960000  0.88690000  1.0 0.1093883464
H  H58  1  0.13930000  0.80040000  0.38690000  1.0 0.1093883464
H  H59  1  0.30040000  0.36070000  0.63690000  1.0 0.1093883464
H  H60  1  0.69960000  0.63930000  0.13690000  1.0 0.1093883464
H  H61  1  0.63930000  0.69960000  0.86310000  1.0 0.1093883464
H  H62  1  0.36070000  0.30040000  0.36310000  1.0 0.1093883464
H  H63  1  0.19960000  0.86070000  0.11310000  1.0 0.1093883464
H  H64  1  0.80040000  0.13930000  0.61310000  1.0 0.1093883464
H  H65  1  0.11780000  0.95740000  0.79120000  1.0 0.1093883464
H  H66  1  0.88220000  0.04260000  0.29120000  1.0 0.1093883464
H  H67  1  0.54260000  0.61780000  0.54120000  1.0 0.1093883464
H  H68  1  0.45740000  0.38220000  0.04120000  1.0 0.1093883464
H  H69  1  0.38220000  0.45740000  0.95880000  1.0 0.1093883464
H  H70  1  0.61780000  0.54260000  0.45880000  1.0 0.1093883464
H  H71  1  0.95740000  0.11780000  0.20880000  1.0 0.1093883464
H  H72  1  0.04260000  0.88220000  0.70880000  1.0 0.1093883464
H  H73  1  0.23120000  0.93840000  0.72400000  1.0 0.1093883464
H  H74  1  0.76880000  0.06160000  0.22400000  1.0 0.1093883464
H  H75  1  0.56160000  0.73120000  0.47400000  1.0 0.1093883464
H  H76  1  0.43840000  0.26880000  0.97400000  1.0 0.1093883464
H  H77  1  0.26880000  0.43840000  0.02600000  1.0 0.1093883464
H  H78  1  0.73120000  0.56160000  0.52600000  1.0 0.1093883464
H  H79  1  0.93840000  0.23120000  0.27600000  1.0 0.1093883464
H  H80  1  0.06160000  0.76880000  0.77600000  1.0 0.1093883464
H  H81  1  0.33270000  0.03800000  0.71210000  1.0 0.1093883464
H  H82  1  0.66730000  0.96200000  0.21210000  1.0 0.1093883464
H  H83  1  0.46200000  0.83270000  0.46210000  1.0 0.1093883464
H  H84  1  0.53800000  0.16730000  0.96210000  1.0 0.1093883464
H  H85  1  0.16730000  0.53800000  0.03790000  1.0 0.1093883464
H  H86  1  0.83270000  0.46200000  0.53790000  1.0 0.1093883464
H  H87  1  0.03800000  0.33270000  0.28790000  1.0 0.1093883464
H  H88  1  0.96200000  0.66730000  0.78790000  1.0 0.1093883464
H  H89  1  0.22220000  0.17780000  0.84600000  1.0 0.1014546547
H  H90  1  0.77780000  0.82220000  0.34600000  1.0 0.1014546547
H  H91  1  0.32220000  0.72220000  0.59600000  1.0 0.1014546547
H  H92  1  0.67780000  0.27780000  0.09600000  1.0 0.1014546547
H  H93  1  0.27780000  0.67780000  0.90400000  1.0 0.1014546547
H  H94  1  0.72220000  0.32220000  0.40400000  1.0 0.1014546547
H  H95  1  0.17780000  0.22220000  0.15400000  1.0 0.1014546547
H  H96  1  0.82220000  0.77780000  0.65400000  1.0 0.1014546547
H  H97  1  0.34280000  0.23630000  0.85900000  1.0 0.1271015606
H  H98  1  0.65720000  0.76370000  0.35900000  1.0 0.1271015606
H  H99  1  0.26370000  0.84280000  0.60900000  1.0 0.1271015606
H  H100  1  0.73630000  0.15720000  0.10900000  1.0 0.1271015606
H  H101  1  0.15720000  0.73630000  0.89100000  1.0 0.1271015606
H  H102  1  0.84280000  0.26370000  0.39100000  1.0 0.1271015606
H  H103  1  0.23630000  0.34280000  0.14100000  1.0 0.1271015606
H  H104  1  0.76370000  0.65720000  0.64100000  1.0 0.1271015606
H  H105  1  0.43660000  0.34450000  0.84370000  1.0 0.1014546547
H  H106  1  0.56340000  0.65550000  0.34370000  1.0 0.1014546547
H  H107  1  0.15550000  0.93660000  0.59370000  1.0 0.1014546547
H  H108  1  0.84450000  0.06340000  0.09370000  1.0 0.1014546547
H  H109  1  0.06340000  0.84450000  0.90630000  1.0 0.1014546547
H  H110  1  0.93660000  0.15550000  0.40630000  1.0 0.1014546547
H  H111  1  0.34450000  0.43660000  0.15630000  1.0 0.1014546547
H  H112  1  0.65550000  0.56340000  0.65630000  1.0 0.1014546547
H  H113  1  0.49350000  0.26180000  0.68010000  1.0 0.0929641227
H  H114  1  0.50650000  0.73820000  0.18010000  1.0 0.0929641227
H  H115  1  0.23820000  0.99350000  0.43010000  1.0 0.0929641227
H  H116  1  0.76180000  0.00650000  0.93010000  1.0 0.0929641227
H  H117  1  0.00650000  0.76180000  0.06990000  1.0 0.0929641227
H  H118  1  0.99350000  0.23820000  0.56990000  1.0 0.0929641227
H  H119  1  0.26180000  0.49350000  0.31990000  1.0 0.0929641227
H  H120  1  0.73820000  0.50650000  0.81990000  1.0 0.0929641227
H  H121  1  0.39910000  0.15120000  0.69160000  1.0 0.1271015606
H  H122  1  0.60090000  0.84880000  0.19160000  1.0 0.1271015606
H  H123  1  0.34880000  0.89910000  0.44160000  1.0 0.1271015606
H  H124  1  0.65120000  0.10090000  0.94160000  1.0 0.1271015606
H  H125  1  0.10090000  0.65120000  0.05840000  1.0 0.1271015606
H  H126  1  0.89910000  0.34880000  0.55840000  1.0 0.1271015606
H  H127  1  0.15120000  0.39910000  0.30840000  1.0 0.1271015606
H  H128  1  0.84880000  0.60090000  0.80840000  1.0 0.1271015606
H  H129  1  0.03190000  0.25320000  0.84520000  1.0 0.2550499826
H  H130  1  0.96810000  0.74680000  0.34520000  1.0 0.2550499826
H  H131  1  0.24680000  0.53190000  0.59520000  1.0 0.2550499826
H  H132  1  0.75320000  0.46810000  0.09520000  1.0 0.2550499826
H  H133  1  0.46810000  0.75320000  0.90480000  1.0 0.2550499826
H  H134  1  0.53190000  0.24680000  0.40480000  1.0 0.2550499826
H  H135  1  0.25320000  0.03190000  0.15480000  1.0 0.2550499826
H  H136  1  0.74680000  0.96810000  0.65480000  1.0 0.2550499826
H  H137  1  0.08150000  0.26650000  0.90240000  1.0 0.2550499826
H  H138  1  0.91850000  0.73350000  0.40240000  1.0 0.2534502744
H  H139  1  0.23350000  0.58150000  0.65240000  1.0 0.2534502744
H  H140  1  0.76650000  0.41850000  0.15240000  1.0 0.2534502744
H  H141  1  0.41850000  0.76650000  0.84760000  1.0 0.2534502744
H  H142  1  0.58150000  0.23350000  0.34760000  1.0 0.2534502744
H  H143  1  0.26650000  0.08150000  0.09760000  1.0 0.2550499826
H  H144  1  0.73350000  0.91850000  0.59760000  1.0 0.2534502744
C  C1  1  0.65620000  0.30160000  0.82600000  1.0 0.0264361714
C  C2  1  0.34380000  0.69840000  0.32600000  1.0 0.0264361714
C  C3  1  0.19840000  0.15620000  0.57600000  1.0 0.0264361714
C  C4  1  0.80160000  0.84380000  0.07600000  1.0 0.0264361714
C  C5  1  0.84380000  0.80160000  0.92400000  1.0 0.0264361714
C  C6  1  0.15620000  0.19840000  0.42400000  1.0 0.0264361714
C  C7  1  0.30160000  0.65620000  0.17400000  1.0 0.0264361714
C  C8  1  0.69840000  0.34380000  0.67400000  1.0 0.0264361714
C  C9  1  0.71700000  0.26790000  0.86410000  1.0 -0.1987933765
C  C10  1  0.28300000  0.73210000  0.36410000  1.0 -0.1987933765
C  C11  1  0.23210000  0.21700000  0.61410000  1.0 -0.1987933765
C  C12  1  0.76790000  0.78300000  0.11410000  1.0 -0.1987933765
C  C13  1  0.78300000  0.76790000  0.88590000  1.0 -0.1987933765
C  C14  1  0.21700000  0.23210000  0.38590000  1.0 -0.1987933765
C  C15  1  0.26790000  0.71700000  0.13590000  1.0 -0.1987933765
C  C16  1  0.73210000  0.28300000  0.63590000  1.0 -0.1987933765
C  C17  1  0.74640000  0.31030000  0.91410000  1.0 0.1093883464
C  C18  1  0.25360000  0.68970000  0.41410000  1.0 0.1093883464
C  C19  1  0.18970000  0.24640000  0.66410000  1.0 0.1093883464
C  C20  1  0.81030000  0.75360000  0.16410000  1.0 0.1093883464
C  C21  1  0.75360000  0.81030000  0.83590000  1.0 0.1093883464
C  C22  1  0.24640000  0.18970000  0.33590000  1.0 0.1093883464
C  C23  1  0.31030000  0.74640000  0.08590000  1.0 0.1093883464
C  C24  1  0.68970000  0.25360000  0.58590000  1.0 0.1093883464
C  C25  1  0.70240000  0.38700000  0.92730000  1.0 -0.221438977
C  C26  1  0.29760000  0.61300000  0.42730000  1.0 -0.221438977
C  C27  1  0.11300000  0.20240000  0.67730000  1.0 -0.221438977
C  C28  1  0.88700000  0.79760000  0.17730000  1.0 -0.221438977
C  C29  1  0.79760000  0.88700000  0.82270000  1.0 -0.221438977
C  C30  1  0.20240000  0.11300000  0.32270000  1.0 -0.221438977
C  C31  1  0.38700000  0.70240000  0.07270000  1.0 -0.221438977
C  C32  1  0.61300000  0.29760000  0.57270000  1.0 -0.221438977
C  C33  1  0.64180000  0.41350000  0.88790000  1.0 0.0693914578
C  C34  1  0.35820000  0.58650000  0.38790000  1.0 0.0693914578
C  C35  1  0.08650000  0.14180000  0.63790000  1.0 0.0693914578
C  C36  1  0.91350000  0.85820000  0.13790000  1.0 0.0693914578
C  C37  1  0.85820000  0.91350000  0.86210000  1.0 0.0693914578
C  C38  1  0.14180000  0.08650000  0.36210000  1.0 0.0693914578
C  C39  1  0.41350000  0.64180000  0.11210000  1.0 0.0693914578
C  C40  1  0.58650000  0.35820000  0.61210000  1.0 0.0693914578
C  C41  1  0.81700000  0.28180000  0.95180000  1.0 0.0693914578
C  C42  1  0.18300000  0.71820000  0.45180000  1.0 0.0693914578
C  C43  1  0.21820000  0.31700000  0.70180000  1.0 0.0693914578
C  C44  1  0.78180000  0.68300000  0.20180000  1.0 0.0693914578
C  C45  1  0.68300000  0.78180000  0.79820000  1.0 0.0693914578
C  C46  1  0.31700000  0.21820000  0.29820000  1.0 0.0693914578
C  C47  1  0.28180000  0.81700000  0.04820000  1.0 0.0693914578
C  C48  1  0.71820000  0.18300000  0.54820000  1.0 0.0693914578
C  C49  1  0.83380000  0.31110000  0.01110000  1.0 -0.1673074812
C  C50  1  0.16620000  0.68890000  0.51110000  1.0 -0.1673074812
C  C51  1  0.18890000  0.33380000  0.76110000  1.0 -0.1673074812
C  C52  1  0.81110000  0.66620000  0.26110000  1.0 -0.1673074812
C  C53  1  0.66620000  0.81110000  0.73890000  1.0 -0.1673074812
C  C54  1  0.33380000  0.18890000  0.23890000  1.0 -0.1673074812
C  C55  1  0.31110000  0.83380000  0.98890000  1.0 -0.1673074812
C  C56  1  0.68890000  0.16620000  0.48890000  1.0 -0.1673074812
C  C57  1  0.90130000  0.28110000  0.04400000  1.0 -0.102940192
C  C58  1  0.09870000  0.71890000  0.54400000  1.0 -0.102940192
C  C59  1  0.21890000  0.40130000  0.79400000  1.0 -0.102940192
C  C60  1  0.78110000  0.59870000  0.29400000  1.0 -0.102940192
C  C61  1  0.59870000  0.78110000  0.70600000  1.0 -0.102940192
C  C62  1  0.40130000  0.21890000  0.20600000  1.0 -0.102940192
C  C63  1  0.28110000  0.90130000  0.95600000  1.0 -0.102940192
C  C64  1  0.71890000  0.09870000  0.45600000  1.0 -0.102940192
C  C65  1  0.95460000  0.22180000  0.01870000  1.0 -0.159694884
C  C66  1  0.04540000  0.77820000  0.51870000  1.0 -0.159694884
C  C67  1  0.27820000  0.45460000  0.76870000  1.0 -0.159694884
C  C68  1  0.72180000  0.54540000  0.26870000  1.0 -0.159694884
C  C69  1  0.54540000  0.72180000  0.73130000  1.0 -0.159694884
C  C70  1  0.45460000  0.27820000  0.23130000  1.0 -0.159694884
C  C71  1  0.22180000  0.95460000  0.98130000  1.0 -0.159694884
C  C72  1  0.77820000  0.04540000  0.48130000  1.0 -0.159694884
C  C73  1  0.94010000  0.18930000  0.95990000  1.0 0.0094855308
C  C74  1  0.05990000  0.81070000  0.45990000  1.0 0.0094855308
C  C75  1  0.31070000  0.44010000  0.70990000  1.0 0.0094855308
C  C76  1  0.68930000  0.55990000  0.20990000  1.0 0.0094855308
C  C77  1  0.55990000  0.68930000  0.79010000  1.0 0.0094855308
C  C78  1  0.44010000  0.31070000  0.29010000  1.0 0.0094855308
C  C79  1  0.18930000  0.94010000  0.04010000  1.0 0.0094855308
C  C80  1  0.81070000  0.05990000  0.54010000  1.0 0.0094855308
C  C81  1  0.87130000  0.22050000  0.92720000  1.0 -0.2099478319
C  C82  1  0.12870000  0.77950000  0.42720000  1.0 -0.2099478319
C  C83  1  0.27950000  0.37130000  0.67720000  1.0 -0.2099478319
C  C84  1  0.72050000  0.62870000  0.17720000  1.0 -0.2099478319
C  C85  1  0.62870000  0.72050000  0.82280000  1.0 -0.2099478319
C  C86  1  0.37130000  0.27950000  0.32280000  1.0 -0.2099478319
C  C87  1  0.22050000  0.87130000  0.07280000  1.0 -0.2099478319
C  C88  1  0.77950000  0.12870000  0.57280000  1.0 -0.2099478319
C  C89  1  0.99440000  0.12870000  0.93020000  1.0 0.171843389
C  C90  1  0.00560000  0.87130000  0.43020000  1.0 0.171843389
C  C91  1  0.37130000  0.49440000  0.68020000  1.0 0.171843389
C  C92  1  0.62870000  0.50560000  0.18020000  1.0 0.171843389
C  C93  1  0.50560000  0.62870000  0.81980000  1.0 0.171843389
C  C94  1  0.49440000  0.37130000  0.31980000  1.0 0.171843389
C  C95  1  0.12870000  0.99440000  0.06980000  1.0 0.171843389
C  C96  1  0.87130000  0.00560000  0.56980000  1.0 0.171843389
C  C97  1  0.09250000  0.07710000  0.86780000  1.0 0.171843389
C  C98  1  0.90750000  0.92290000  0.36780000  1.0 0.171843389
C  C99  1  0.42290000  0.59250000  0.61780000  1.0 0.171843389
C  C100  1  0.57710000  0.40750000  0.11780000  1.0 0.171843389
C  C101  1  0.40750000  0.57710000  0.88220000  1.0 0.171843389
C  C102  1  0.59250000  0.42290000  0.38220000  1.0 0.171843389
C  C103  1  0.07710000  0.09250000  0.13220000  1.0 0.171843389
C  C104  1  0.92290000  0.90750000  0.63220000  1.0 0.171843389
C  C105  1  0.16010000  0.06900000  0.82490000  1.0 0.0264361714
C  C106  1  0.83990000  0.93100000  0.32490000  1.0 0.0264361714
C  C107  1  0.43100000  0.66010000  0.57490000  1.0 0.0264361714
C  C108  1  0.56900000  0.33990000  0.07490000  1.0 0.0264361714
C  C109  1  0.33990000  0.56900000  0.92510000  1.0 0.0264361714
C  C110  1  0.66010000  0.43100000  0.42510000  1.0 0.0264361714
C  C111  1  0.06900000  0.16010000  0.17510000  1.0 0.0264361714
C  C112  1  0.93100000  0.83990000  0.67510000  1.0 0.0264361714
C  C113  1  0.16130000  0.99820000  0.78870000  1.0 -0.159694884
C  C114  1  0.83870000  0.00180000  0.28870000  1.0 -0.159694884
C  C115  1  0.50180000  0.66130000  0.53870000  1.0 -0.159694884
C  C116  1  0.49820000  0.33870000  0.03870000  1.0 -0.159694884
C  C117  1  0.33870000  0.49820000  0.96130000  1.0 -0.159694884
C  C118  1  0.66130000  0.50180000  0.46130000  1.0 -0.159694884
C  C119  1  0.99820000  0.16130000  0.21130000  1.0 -0.159694884
C  C120  1  0.00180000  0.83870000  0.71130000  1.0 -0.159694884
C  C121  1  0.22850000  0.98810000  0.74830000  1.0 -0.102940192
C  C122  1  0.77150000  0.01190000  0.24830000  1.0 -0.102940192
C  C123  1  0.51190000  0.72850000  0.49830000  1.0 -0.102940192
C  C124  1  0.48810000  0.27150000  0.99830000  1.0 -0.102940192
C  C125  1  0.27150000  0.48810000  0.00170000  1.0 -0.102940192
C  C126  1  0.72850000  0.51190000  0.50170000  1.0 -0.102940192
C  C127  1  0.98810000  0.22850000  0.25170000  1.0 -0.102940192
C  C128  1  0.01190000  0.77150000  0.75170000  1.0 -0.102940192
C  C129  1  0.28990000  0.04610000  0.74200000  1.0 -0.159694884
C  C130  1  0.71010000  0.95390000  0.24200000  1.0 -0.159694884
C  C131  1  0.45390000  0.78990000  0.49200000  1.0 -0.159694884
C  C132  1  0.54610000  0.21010000  0.99200000  1.0 -0.159694884
C  C133  1  0.21010000  0.54610000  0.00800000  1.0 -0.159694884
C  C134  1  0.78990000  0.45390000  0.50800000  1.0 -0.159694884
C  C135  1  0.04610000  0.28990000  0.25800000  1.0 -0.159694884
C  C136  1  0.95390000  0.71010000  0.75800000  1.0 -0.159694884
C  C137  1  0.29140000  0.11980000  0.78010000  1.0 0.0693914578
C  C138  1  0.70860000  0.88020000  0.28010000  1.0 0.0693914578
C  C139  1  0.38020000  0.79140000  0.53010000  1.0 0.0693914578
C  C140  1  0.61980000  0.20860000  0.03010000  1.0 0.0693914578
C  C141  1  0.20860000  0.61980000  0.96990000  1.0 0.0693914578
C  C142  1  0.79140000  0.38020000  0.46990000  1.0 0.0693914578
C  C143  1  0.11980000  0.29140000  0.21990000  1.0 0.0693914578
C  C144  1  0.88020000  0.70860000  0.71990000  1.0 0.0693914578
C  C145  1  0.22460000  0.12920000  0.82050000  1.0 -0.1987933765
C  C146  1  0.77540000  0.87080000  0.32050000  1.0 -0.1987933765
C  C147  1  0.37080000  0.72460000  0.57050000  1.0 -0.1987933765
C  C148  1  0.62920000  0.27540000  0.07050000  1.0 -0.1987933765
C  C149  1  0.27540000  0.62920000  0.92950000  1.0 -0.1987933765
C  C150  1  0.72460000  0.37080000  0.42950000  1.0 -0.1987933765
C  C151  1  0.12920000  0.22460000  0.17950000  1.0 -0.1987933765
C  C152  1  0.87080000  0.77540000  0.67950000  1.0 -0.1987933765
C  C153  1  0.35560000  0.18470000  0.77460000  1.0 0.1093883464
C  C154  1  0.64440000  0.81530000  0.27460000  1.0 0.1093883464
C  C155  1  0.31530000  0.85560000  0.52460000  1.0 0.1093883464
C  C156  1  0.68470000  0.14440000  0.02460000  1.0 0.1093883464
C  C157  1  0.14440000  0.68470000  0.97540000  1.0 0.1093883464
C  C158  1  0.85560000  0.31530000  0.47540000  1.0 0.1093883464
C  C159  1  0.18470000  0.35560000  0.22540000  1.0 0.1093883464
C  C160  1  0.81530000  0.64440000  0.72540000  1.0 0.1093883464
C  C161  1  0.37130000  0.24100000  0.82070000  1.0 -0.1987933765
C  C162  1  0.62870000  0.75900000  0.32070000  1.0 -0.1987933765
C  C163  1  0.25900000  0.87130000  0.57070000  1.0 -0.1987933765
C  C164  1  0.74100000  0.12870000  0.07070000  1.0 -0.1987933765
C  C165  1  0.12870000  0.74100000  0.92930000  1.0 -0.1987933765
C  C166  1  0.87130000  0.25900000  0.42930000  1.0 -0.1987933765
C  C167  1  0.24100000  0.37130000  0.17930000  1.0 -0.1987933765
C  C168  1  0.75900000  0.62870000  0.67930000  1.0 -0.1987933765
C  C169  1  0.42880000  0.30480000  0.81140000  1.0 0.0502141658
C  C170  1  0.57120000  0.69520000  0.31140000  1.0 0.0502141658
C  C171  1  0.19520000  0.92880000  0.56140000  1.0 0.0502141658
C  C172  1  0.80480000  0.07120000  0.06140000  1.0 0.0502141658
C  C173  1  0.07120000  0.80480000  0.93860000  1.0 0.0502141658
C  C174  1  0.92880000  0.19520000  0.43860000  1.0 0.0502141658
C  C175  1  0.30480000  0.42880000  0.18860000  1.0 0.0502141658
C  C176  1  0.69520000  0.57120000  0.68860000  1.0 0.0502141658
C  C177  1  0.46200000  0.25790000  0.71720000  1.0 0.0693914578
C  C178  1  0.53800000  0.74210000  0.21720000  1.0 0.0693914578
C  C179  1  0.24210000  0.96200000  0.46720000  1.0 0.0693914578
C  C180  1  0.75790000  0.03800000  0.96720000  1.0 0.0693914578
C  C181  1  0.03800000  0.75790000  0.03280000  1.0 0.0693914578
C  C182  1  0.96200000  0.24210000  0.53280000  1.0 0.0693914578
C  C183  1  0.25790000  0.46200000  0.28280000  1.0 0.0693914578
C  C184  1  0.74210000  0.53800000  0.78280000  1.0 0.0693914578
C  C185  1  0.40430000  0.19170000  0.72350000  1.0 -0.2099478319
C  C186  1  0.59570000  0.80830000  0.22350000  1.0 -0.2099478319
C  C187  1  0.30830000  0.90430000  0.47350000  1.0 -0.2099478319
C  C188  1  0.69170000  0.09570000  0.97350000  1.0 -0.2099478319
C  C189  1  0.09570000  0.69170000  0.02650000  1.0 -0.2099478319
C  C190  1  0.90430000  0.30830000  0.52650000  1.0 -0.2099478319
C  C191  1  0.19170000  0.40430000  0.27650000  1.0 -0.2099478319
C  C192  1  0.80830000  0.59570000  0.77650000  1.0 -0.2099478319
N  N1  1  0.99360000  0.04710000  0.93490000  1.0 -0.2365787197
N  N2  1  0.00640000  0.95290000  0.43490000  1.0 -0.2365787197
N  N3  1  0.45290000  0.49360000  0.68490000  1.0 -0.2365787197
N  N4  1  0.54710000  0.50640000  0.18490000  1.0 -0.2365787197
N  N5  1  0.50640000  0.54710000  0.81510000  1.0 -0.2365787197
N  N6  1  0.49360000  0.45290000  0.31510000  1.0 -0.2365787197
N  N7  1  0.04710000  0.99360000  0.06510000  1.0 -0.2365787197
N  N8  1  0.95290000  0.00640000  0.56510000  1.0 -0.2365787197
N  N9  1  0.05570000  0.01390000  0.89610000  1.0 -0.2880940177
N  N10  1  0.94430000  0.98610000  0.39610000  1.0 -0.2880940177
N  N11  1  0.48610000  0.55570000  0.64610000  1.0 -0.2880940177
N  N12  1  0.51390000  0.44430000  0.14610000  1.0 -0.2880940177
N  N13  1  0.44430000  0.51390000  0.85390000  1.0 -0.2880940177
N  N14  1  0.55570000  0.48610000  0.35390000  1.0 -0.2880940177
N  N15  1  0.01390000  0.05570000  0.10390000  1.0 -0.2880940177
N  N16  1  0.98610000  0.94430000  0.60390000  1.0 -0.2880940177
N  N17  1  0.05500000  0.15030000  0.88910000  1.0 0.0585636869
N  N18  1  0.94500000  0.84970000  0.38910000  1.0 0.0585636869
N  N19  1  0.34970000  0.55500000  0.63910000  1.0 0.0585636869
N  N20  1  0.65030000  0.44500000  0.13910000  1.0 0.0585636869
N  N21  1  0.44500000  0.65030000  0.86090000  1.0 0.0585636869
N  N22  1  0.55500000  0.34970000  0.36090000  1.0 0.0585636869
N  N23  1  0.15030000  0.05500000  0.11090000  1.0 0.0585636869
N  N24  1  0.84970000  0.94500000  0.61090000  1.0 0.0585636869
N  N25  1  0.07450000  0.23280000  0.86890000  1.0 -0.5169787705
N  N26  1  0.92550000  0.76720000  0.36890000  1.0 -0.5169787705
N  N27  1  0.26720000  0.57450000  0.61890000  1.0 -0.5169787705
N  N28  1  0.73280000  0.42550000  0.11890000  1.0 -0.5169787705
N  N29  1  0.42550000  0.73280000  0.88110000  1.0 -0.5169787705
N  N30  1  0.57450000  0.26720000  0.38110000  1.0 -0.5169787705
N  N31  1  0.23280000  0.07450000  0.13110000  1.0 -0.5169787705
N  N32  1  0.76720000  0.92550000  0.63110000  1.0 -0.5169787705
N  N33  1  0.62190000  0.37690000  0.83690000  1.0 -0.221438977
N  N34  1  0.37810000  0.62310000  0.33690000  1.0 -0.221438977
N  N35  1  0.12310000  0.12190000  0.58690000  1.0 -0.221438977
N  N36  1  0.87690000  0.87810000  0.08690000  1.0 -0.221438977
N  N37  1  0.87810000  0.87690000  0.91310000  1.0 -0.221438977
N  N38  1  0.12190000  0.12310000  0.41310000  1.0 -0.221438977
N  N39  1  0.37690000  0.62190000  0.16310000  1.0 -0.221438977
N  N40  1  0.62310000  0.37810000  0.66310000  1.0 -0.221438977
N  N41  1  0.47430000  0.31450000  0.76010000  1.0 -0.2365787197
N  N42  1  0.52570000  0.68550000  0.26010000  1.0 -0.2365787197
N  N43  1  0.18550000  0.97430000  0.51010000  1.0 -0.2365787197
N  N44  1  0.81450000  0.02570000  0.01010000  1.0 -0.2365787197
N  N45  1  0.02570000  0.81450000  0.98990000  1.0 -0.2365787197
N  N46  1  0.97430000  0.18550000  0.48990000  1.0 -0.2365787197
N  N47  1  0.31450000  0.47430000  0.23990000  1.0 -0.2365787197
N  N48  1  0.68550000  0.52570000  0.73990000  1.0 -0.2365787197
