# DDEC6 charges by PACMAN v1.1 (https://github.com/mtap-research/PACMAN-charge/)
data_WUSFOI_FSR_pacman
_symmetry_space_group_name_H-M   'P 1'
_cell_length_a   11.11290000
_cell_length_b   11.37000000
_cell_length_c   16.23300000
_cell_angle_alpha   75.32300000
_cell_angle_beta   82.96000000
_cell_angle_gamma   75.49000000
_symmetry_Int_Tables_number   1
_chemical_formula_structural   DyH12C14(NO4)2
_chemical_formula_sum   'Dy4 H48 C56 N8 O32'
_cell_volume   1917.05741045
_cell_formula_units_Z   4
loop_
 _symmetry_equiv_pos_site_id
 _symmetry_equiv_pos_as_xyz
  1  'x, y, z'
loop_
 _atom_site_type_symbol
 _atom_site_label
 _atom_site_symmetry_multiplicity
 _atom_site_fract_x
 _atom_site_fract_y
 _atom_site_fract_z
 _atom_site_occupancy
 _atom_site_charge
Dy  Dy1  1  0.58757000  0.83983000  0.37340000  1.0 2.0585888214
Dy  Dy2  1  0.79284000  0.00496000  0.13442000  1.0 2.150824625
Dy  Dy3  1  0.41243000  0.16017000  0.62660000  1.0 2.0585888214
Dy  Dy4  1  0.20716000  0.99504000  0.86558000  1.0 2.150824625
H  H1  1  0.66059000  0.95681000  0.93229000  1.0 0.138782391
H  H2  1  0.19755000  0.83565000  0.56246000  1.0 0.138782391
H  H3  1  0.14783000  0.84037000  0.31995000  1.0 0.1321101561
H  H4  1  0.65348000  0.39814000  0.79129000  1.0 0.1321101561
H  H5  1  0.54918000  0.32697000  0.79221000  1.0 0.138782391
H  H6  1  0.68981000  0.25833000  0.78453000  1.0 0.1321101561
H  H7  1  0.67874000  0.72409000  0.54655000  1.0 0.3908052332
H  H8  1  0.56904000  0.82111000  0.56004000  1.0 0.4083463139
H  H9  1  0.61881000  0.09131000  0.36046000  1.0 0.3908052332
H  H10  1  0.61417000  0.03677000  0.45011000  1.0 0.3995807953
H  H11  1  0.65964000  0.57702000  0.45286000  1.0 0.3780395574
H  H12  1  0.54677000  0.59154000  0.41472000  1.0 0.3908052332
H  H13  1  0.85688000  0.84603000  0.49517000  1.0 0.1212205774
H  H14  1  0.86844000  0.29012000  0.10933000  1.0 0.138782391
H  H15  1  0.66703000  0.48225000  0.27541000  1.0 0.1141212023
H  H16  1  0.63748000  0.90001000  0.70031000  1.0 0.1321101561
H  H17  1  0.87716000  0.65141000  0.08241000  1.0 0.138782391
H  H18  1  0.97301000  0.87488000  0.78191000  1.0 0.138782391
H  H19  1  0.85301000  0.21005000  0.84600000  1.0 0.1603298969
H  H20  1  0.91714000  0.19300000  0.93039000  1.0 0.1780357099
H  H21  1  0.85841000  0.32737000  0.87822000  1.0 0.1603298969
H  H22  1  0.44192000  0.34514000  0.93279000  1.0 0.138782391
H  H23  1  0.50918000  0.25455000  0.01217000  1.0 0.1513625172
H  H24  1  0.47553000  0.20057000  0.94040000  1.0 0.1513625172
H  H25  1  0.33941000  0.04319000  0.06771000  1.0 0.138782391
H  H26  1  0.80245000  0.16435000  0.43754000  1.0 0.138782391
H  H27  1  0.85217000  0.15963000  0.68005000  1.0 0.1321101561
H  H28  1  0.34652000  0.60186000  0.20871000  1.0 0.1321101561
H  H29  1  0.45082000  0.67303000  0.20779000  1.0 0.138782391
H  H30  1  0.31019000  0.74167000  0.21547000  1.0 0.1321101561
H  H31  1  0.32126000  0.27591000  0.45345000  1.0 0.3908052332
H  H32  1  0.43096000  0.17889000  0.43996000  1.0 0.4083463139
H  H33  1  0.38119000  0.90869000  0.63954000  1.0 0.3908052332
H  H34  1  0.38583000  0.96323000  0.54989000  1.0 0.3995807953
H  H35  1  0.34036000  0.42298000  0.54714000  1.0 0.3780395574
H  H36  1  0.45323000  0.40846000  0.58528000  1.0 0.3908052332
H  H37  1  0.14312000  0.15397000  0.50483000  1.0 0.1212205774
H  H38  1  0.13156000  0.70988000  0.89067000  1.0 0.138782391
H  H39  1  0.33297000  0.51775000  0.72459000  1.0 0.1141212023
H  H40  1  0.36252000  0.09999000  0.29969000  1.0 0.1321101561
H  H41  1  0.12284000  0.34859000  0.91759000  1.0 0.138782391
H  H42  1  0.02699000  0.12512000  0.21809000  1.0 0.138782391
H  H43  1  0.14699000  0.78995000  0.15400000  1.0 0.1603298969
H  H44  1  0.08286000  0.80700000  0.06961000  1.0 0.1780357099
H  H45  1  0.14159000  0.67263000  0.12178000  1.0 0.1603298969
H  H46  1  0.55808000  0.65486000  0.06721000  1.0 0.138782391
H  H47  1  0.49082000  0.74545000  0.98783000  1.0 0.1513625172
H  H48  1  0.52447000  0.79943000  0.05960000  1.0 0.1513625172
C  C1  1  0.71620000  0.24980000  0.24680000  1.0 0.6100706942
C  C2  1  0.76340000  0.36690000  0.20010000  1.0 -0.0106878355
C  C3  1  0.90580000  0.92500000  0.93520000  1.0 0.6460849829
C  C4  1  0.48520000  0.97780000  0.82570000  1.0 0.6100706942
C  C5  1  0.62590000  0.93810000  0.81670000  1.0 -0.0106878355
C  C6  1  0.69840000  0.93980000  0.88090000  1.0 -0.0853550249
C  C7  1  0.82990000  0.91530000  0.86700000  1.0 -0.0183519694
C  C8  1  0.32750000  0.84470000  0.41160000  1.0 0.5667526014
C  C9  1  0.19500000  0.83700000  0.43810000  1.0 -0.0183519694
C  C10  1  0.14580000  0.83690000  0.52120000  1.0 -0.1528470107
C  C11  1  0.11580000  0.84080000  0.37560000  1.0 -0.1042751707
C  C12  1  0.63090000  0.31890000  0.80970000  1.0 -0.3364804202
C  C13  1  0.76550000  0.58640000  0.18440000  1.0 -0.028858604
C  C14  1  0.72340000  0.70760000  0.21290000  1.0 0.6460849829
C  C15  1  0.94090000  0.84370000  0.48080000  1.0 -0.1650460028
C  C16  1  0.84350000  0.36290000  0.12930000  1.0 -0.1395989173
C  C17  1  0.72270000  0.47910000  0.22790000  1.0 -0.1242775135
C  C18  1  0.98960000  0.84530000  0.39680000  1.0 -0.0106878355
C  C19  1  0.81530000  0.87900000  0.72870000  1.0 0.1603298969
C  C20  1  0.90170000  0.86130000  0.32760000  1.0 0.6565092988
C  C21  1  0.02090000  0.83860000  0.54340000  1.0 0.1603298969
C  C22  1  0.68530000  0.90490000  0.74200000  1.0 -0.1634414607
C  C23  1  0.88840000  0.47040000  0.08640000  1.0 0.1513625172
C  C24  1  0.84890000  0.58110000  0.11230000  1.0 -0.1528470107
C  C25  1  0.88690000  0.88770000  0.79130000  1.0 -0.1395989173
C  C26  1  0.85020000  0.24240000  0.89560000  1.0 -0.5487380736
C  C27  1  0.72230000  0.23700000  0.94820000  1.0 0.518656332
C  C28  1  0.50200000  0.26870000  0.95190000  1.0 -0.3340487295
C  C29  1  0.28380000  0.75020000  0.75320000  1.0 0.6100706942
C  C30  1  0.23660000  0.63310000  0.79990000  1.0 -0.0106878355
C  C31  1  0.09420000  0.07500000  0.06480000  1.0 0.6460849829
C  C32  1  0.51480000  0.02220000  0.17430000  1.0 0.6100706942
C  C33  1  0.37410000  0.06190000  0.18330000  1.0 -0.0106878355
C  C34  1  0.30160000  0.06020000  0.11910000  1.0 -0.0853550249
C  C35  1  0.17010000  0.08470000  0.13300000  1.0 -0.0183519694
C  C36  1  0.67250000  0.15530000  0.58840000  1.0 0.5667526014
C  C37  1  0.80500000  0.16300000  0.56190000  1.0 -0.0183519694
C  C38  1  0.85420000  0.16310000  0.47880000  1.0 -0.1528470107
C  C39  1  0.88420000  0.15920000  0.62440000  1.0 -0.1042751707
C  C40  1  0.36910000  0.68110000  0.19030000  1.0 -0.3364804202
C  C41  1  0.23450000  0.41360000  0.81560000  1.0 -0.028858604
C  C42  1  0.27660000  0.29240000  0.78710000  1.0 0.6460849829
C  C43  1  0.05910000  0.15630000  0.51920000  1.0 -0.1650460028
C  C44  1  0.15650000  0.63710000  0.87070000  1.0 -0.1395989173
C  C45  1  0.27730000  0.52090000  0.77210000  1.0 -0.1242775135
C  C46  1  0.01040000  0.15470000  0.60320000  1.0 -0.0106878355
C  C47  1  0.18470000  0.12100000  0.27130000  1.0 0.1603298969
C  C48  1  0.09830000  0.13870000  0.67240000  1.0 0.6565092988
C  C49  1  0.97910000  0.16140000  0.45660000  1.0 0.1603298969
C  C50  1  0.31470000  0.09510000  0.25800000  1.0 -0.1634414607
C  C51  1  0.11160000  0.52960000  0.91360000  1.0 0.1513625172
C  C52  1  0.15110000  0.41890000  0.88770000  1.0 -0.1528470107
C  C53  1  0.11310000  0.11230000  0.20870000  1.0 -0.1395989173
C  C54  1  0.14980000  0.75760000  0.10440000  1.0 -0.5487380736
C  C55  1  0.27770000  0.76300000  0.05180000  1.0 0.518656332
C  C56  1  0.49800000  0.73130000  0.04810000  1.0 -0.3340487295
N  N1  1  0.97520000  0.45460000  0.01450000  1.0 -0.10817268
N  N2  1  0.97770000  0.84810000  0.63010000  1.0 -0.10817268
N  N3  1  0.86180000  0.85880000  0.64550000  1.0 -0.10817268
N  N4  1  0.63110000  0.27790000  0.90380000  1.0 0.0123027804
N  N5  1  0.02480000  0.54540000  0.98550000  1.0 -0.10817268
N  N6  1  0.02230000  0.15190000  0.36990000  1.0 -0.10817268
N  N7  1  0.13820000  0.14120000  0.35450000  1.0 -0.10817268
N  N8  1  0.36890000  0.72210000  0.09620000  1.0 0.0123027804
O  O1  1  0.75890000  0.15270000  0.21770000  1.0 -0.6908913665
O  O2  1  0.85150000  0.93210000  0.00740000  1.0 -0.6785125547
O  O3  1  0.02080000  0.92410000  0.91550000  1.0 -0.6785125547
O  O4  1  0.42510000  0.00470000  0.75860000  1.0 -0.7348816209
O  O5  1  0.42910000  0.98110000  0.89780000  1.0 -0.6032655948
O  O6  1  0.38810000  0.88210000  0.45950000  1.0 -0.6688419395
O  O7  1  0.37930000  0.81540000  0.34370000  1.0 -0.6358429008
O  O8  1  0.93500000  0.90210000  0.25120000  1.0 -0.6303858572
O  O9  1  0.63870000  0.80440000  0.52570000  1.0 -0.7801826808
O  O10  1  0.57910000  0.04620000  0.40230000  1.0 -0.7801826808
O  O11  1  0.64100000  0.71290000  0.27340000  1.0 -0.6785125547
O  O12  1  0.58370000  0.62360000  0.44540000  1.0 -0.7801826808
O  O13  1  0.77490000  0.79570000  0.17500000  1.0 -0.6688419395
O  O14  1  0.64210000  0.25390000  0.31060000  1.0 -0.5588754826
O  O15  1  0.79700000  0.83300000  0.35400000  1.0 -0.7375774794
O  O16  1  0.71750000  0.19720000  0.02940000  1.0 -0.6688419395
O  O17  1  0.24110000  0.84730000  0.78230000  1.0 -0.6908913665
O  O18  1  0.14850000  0.06790000  0.99260000  1.0 -0.6785125547
O  O19  1  0.97920000  0.07590000  0.08450000  1.0 -0.6785125547
O  O20  1  0.57490000  0.99530000  0.24140000  1.0 -0.7348816209
O  O21  1  0.57090000  0.01890000  0.10220000  1.0 -0.6032655948
O  O22  1  0.61190000  0.11790000  0.54050000  1.0 -0.6688419395
O  O23  1  0.62070000  0.18460000  0.65630000  1.0 -0.6358429008
O  O24  1  0.06500000  0.09790000  0.74880000  1.0 -0.6303858572
O  O25  1  0.36130000  0.19560000  0.47430000  1.0 -0.7801826808
O  O26  1  0.42090000  0.95380000  0.59770000  1.0 -0.7801826808
O  O27  1  0.35900000  0.28710000  0.72660000  1.0 -0.6785125547
O  O28  1  0.41630000  0.37640000  0.55460000  1.0 -0.7801826808
O  O29  1  0.22510000  0.20430000  0.82500000  1.0 -0.6688419395
O  O30  1  0.35790000  0.74610000  0.68940000  1.0 -0.5588754826
O  O31  1  0.20300000  0.16700000  0.64600000  1.0 -0.7375774794
O  O32  1  0.28250000  0.80280000  0.97060000  1.0 -0.6688419395
