# DDEC6 charges by PACMAN v1.1 (https://github.com/mtap-research/PACMAN-charge/)
data_WUXMEH_ASR_pacman
_symmetry_space_group_name_H-M   'P 1'
_cell_length_a   11.50600000
_cell_length_b   6.63800000
_cell_length_c   17.14800000
_cell_angle_alpha   90.00000000
_cell_angle_beta   96.05000000
_cell_angle_gamma   90.00000000
_symmetry_Int_Tables_number   1
_chemical_formula_structural   Zr2P3O12F
_chemical_formula_sum   'Zr8 P12 O48 F4'
_cell_volume   1302.41515352
_cell_formula_units_Z   4
loop_
 _symmetry_equiv_pos_site_id
 _symmetry_equiv_pos_as_xyz
  1  'x, y, z'
loop_
 _atom_site_type_symbol
 _atom_site_label
 _atom_site_symmetry_multiplicity
 _atom_site_fract_x
 _atom_site_fract_y
 _atom_site_fract_z
 _atom_site_occupancy
 _atom_site_charge
Zr  Zr1  1  0.59788000  0.92851000  0.86202000  1.0 2.4863203458
Zr  Zr2  1  0.59788000  0.57149000  0.36202000  1.0 2.4863203458
Zr  Zr3  1  0.40212000  0.07149000  0.13798000  1.0 2.4863203458
Zr  Zr4  1  0.40212000  0.42851000  0.63798000  1.0 2.4863203458
Zr  Zr5  1  0.85248000  0.42052000  0.72238000  1.0 2.5022546939
Zr  Zr6  1  0.85248000  0.07948000  0.22238000  1.0 2.5022546939
Zr  Zr7  1  0.14752000  0.57948000  0.27762000  1.0 2.5022546939
Zr  Zr8  1  0.14752000  0.92052000  0.77762000  1.0 2.5022546939
P  P1  1  0.85912000  0.92560000  0.77319000  1.0 1.6430004529
P  P2  1  0.85912000  0.57440000  0.27319000  1.0 1.6430004529
P  P3  1  0.14088000  0.07440000  0.22681000  1.0 1.6430004529
P  P4  1  0.14088000  0.42560000  0.72681000  1.0 1.6455777577
P  P5  1  0.58693000  0.42999000  0.80953000  1.0 1.6309573046
P  P6  1  0.58693000  0.07001000  0.30953000  1.0 1.6309573046
P  P7  1  0.41307000  0.57001000  0.19047000  1.0 1.6309573046
P  P8  1  0.41307000  0.92999000  0.69047000  1.0 1.6309573046
P  P9  1  0.33021000  0.90260000  0.95016000  1.0 1.5616420499
P  P10  1  0.33021000  0.59740000  0.45016000  1.0 1.5616420499
P  P11  1  0.66979000  0.09740000  0.04984000  1.0 1.5616420499
P  P12  1  0.66979000  0.40260000  0.54984000  1.0 1.5616420499
O  O1  1  0.84410000  0.73330000  0.72307000  1.0 -0.7953334757
O  O2  1  0.84410000  0.76670000  0.22307000  1.0 -0.7953334757
O  O3  1  0.15590000  0.26670000  0.27693000  1.0 -0.7953334757
O  O4  1  0.15590000  0.23330000  0.77693000  1.0 -0.7953334757
O  O5  1  0.98180000  0.92710000  0.81850000  1.0 -0.8098835059
O  O6  1  0.98180000  0.57290000  0.31850000  1.0 -0.8098835059
O  O7  1  0.01820000  0.07290000  0.18150000  1.0 -0.8098835059
O  O8  1  0.01820000  0.42710000  0.68150000  1.0 -0.8098835059
O  O9  1  0.76590000  0.93310000  0.83130000  1.0 -0.7823776313
O  O10  1  0.76590000  0.56690000  0.33130000  1.0 -0.7823776313
O  O11  1  0.23410000  0.06690000  0.16870000  1.0 -0.7823776313
O  O12  1  0.23410000  0.43310000  0.66870000  1.0 -0.7823776313
O  O13  1  0.84550000  0.10930000  0.71720000  1.0 -0.7953334757
O  O14  1  0.84550000  0.39070000  0.21720000  1.0 -0.7953334757
O  O15  1  0.15450000  0.89070000  0.28280000  1.0 -0.7953334757
O  O16  1  0.15450000  0.60930000  0.78280000  1.0 -0.7953334757
O  O17  1  0.58780000  0.24590000  0.86438000  1.0 -0.7678677647
O  O18  1  0.58780000  0.25410000  0.36438000  1.0 -0.7678677647
O  O19  1  0.41220000  0.75410000  0.13562000  1.0 -0.7678677647
O  O20  1  0.41220000  0.74590000  0.63562000  1.0 -0.7678677647
O  O21  1  0.47460000  0.43560000  0.75340000  1.0 -0.8178534665
O  O22  1  0.47460000  0.06440000  0.25340000  1.0 -0.8178534665
O  O23  1  0.52540000  0.56440000  0.24660000  1.0 -0.8178534665
O  O24  1  0.52540000  0.93560000  0.74660000  1.0 -0.8178534665
O  O25  1  0.69170000  0.41670000  0.76210000  1.0 -0.8465124973
O  O26  1  0.69170000  0.08330000  0.26210000  1.0 -0.8465124973
O  O27  1  0.30830000  0.58330000  0.23790000  1.0 -0.8465124973
O  O28  1  0.30830000  0.91670000  0.73790000  1.0 -0.8465124973
O  O29  1  0.59650000  0.62080000  0.86190000  1.0 -0.7678677647
O  O30  1  0.59650000  0.87920000  0.36190000  1.0 -0.7678677647
O  O31  1  0.40350000  0.37920000  0.13810000  1.0 -0.7678677647
O  O32  1  0.40350000  0.12080000  0.63810000  1.0 -0.7678677647
O  O33  1  0.43650000  0.92620000  0.90590000  1.0 -0.8098835059
O  O34  1  0.43650000  0.57380000  0.40590000  1.0 -0.8098835059
O  O35  1  0.56350000  0.07380000  0.09410000  1.0 -0.8098835059
O  O36  1  0.56350000  0.42620000  0.59410000  1.0 -0.8098835059
O  O37  1  0.33200000  0.04740000  0.01970000  1.0 -0.7678677647
O  O38  1  0.33200000  0.45260000  0.51970000  1.0 -0.7678677647
O  O39  1  0.66800000  0.95260000  0.98030000  1.0 -0.7678677647
O  O40  1  0.66800000  0.54740000  0.48030000  1.0 -0.7678677647
O  O41  1  0.21760000  0.93040000  0.89640000  1.0 -0.7621465334
O  O42  1  0.21760000  0.56960000  0.39640000  1.0 -0.7621465334
O  O43  1  0.78240000  0.06960000  0.10360000  1.0 -0.7621465334
O  O44  1  0.78240000  0.43040000  0.60360000  1.0 -0.7621465334
O  O45  1  0.32610000  0.67930000  0.98190000  1.0 -0.5367304095
O  O46  1  0.32610000  0.82070000  0.48190000  1.0 -0.5367304095
O  O47  1  0.67390000  0.32070000  0.01810000  1.0 -0.5367304095
O  O48  1  0.67390000  0.17930000  0.51810000  1.0 -0.5367304095
F  F1  1  0.92940000  0.41380000  0.83150000  1.0 -0.565161378
F  F2  1  0.92940000  0.08620000  0.33150000  1.0 -0.565161378
F  F3  1  0.07060000  0.58620000  0.16850000  1.0 -0.565161378
F  F4  1  0.07060000  0.91380000  0.66850000  1.0 -0.565161378
