# DDEC6 charges by PACMAN v1.1 (https://github.com/mtap-research/PACMAN-charge/)
data_WUXMAD_ASR_pacman
_symmetry_space_group_name_H-M   'P 1'
_cell_length_a   11.53900000
_cell_length_b   6.63700000
_cell_length_c   17.09200000
_cell_angle_alpha   90.00000000
_cell_angle_beta   94.95000000
_cell_angle_gamma   90.00000000
_symmetry_Int_Tables_number   1
_chemical_formula_structural   Zr2P4O13F
_chemical_formula_sum   'Zr8 P16 O52 F4'
_cell_volume   1304.09758950
_cell_formula_units_Z   4
loop_
 _symmetry_equiv_pos_site_id
 _symmetry_equiv_pos_as_xyz
  1  'x, y, z'
loop_
 _atom_site_type_symbol
 _atom_site_label
 _atom_site_symmetry_multiplicity
 _atom_site_fract_x
 _atom_site_fract_y
 _atom_site_fract_z
 _atom_site_occupancy
 _atom_site_charge
Zr  Zr1  1  0.59778000  0.93101000  0.86110000  1.0 2.3459460035
Zr  Zr2  1  0.40222000  0.43101000  0.63890000  1.0 2.3459460035
Zr  Zr3  1  0.40222000  0.06899000  0.13890000  1.0 2.3459460035
Zr  Zr4  1  0.59778000  0.56899000  0.36110000  1.0 2.3459460035
Zr  Zr5  1  0.85149000  0.42951000  0.72055000  1.0 2.4242284193
Zr  Zr6  1  0.14851000  0.92951000  0.77945000  1.0 2.4242284193
Zr  Zr7  1  0.14851000  0.57049000  0.27945000  1.0 2.4242284193
Zr  Zr8  1  0.85149000  0.07049000  0.22055000  1.0 2.4242284193
P  P1  1  0.86001000  0.93050000  0.77143000  1.0 1.638697733
P  P2  1  0.13999000  0.43050000  0.72857000  1.0 1.638697733
P  P3  1  0.13999000  0.06950000  0.22857000  1.0 1.638697733
P  P4  1  0.86001000  0.56950000  0.27143000  1.0 1.638697733
P  P5  1  0.58651000  0.43390000  0.80897000  1.0 1.5829341605
P  P6  1  0.41349000  0.93390000  0.69103000  1.0 1.5829341605
P  P7  1  0.41349000  0.56610000  0.19103000  1.0 1.5829341605
P  P8  1  0.58651000  0.06610000  0.30897000  1.0 1.5829341605
P  P9  1  0.33089000  0.90330000  0.95078000  1.0 0.750948225
P  P10  1  0.66911000  0.40330000  0.54922000  1.0 0.750948225
P  P11  1  0.66911000  0.09670000  0.04922000  1.0 0.750948225
P  P12  1  0.33089000  0.59670000  0.45078000  1.0 0.750948225
P  P13  1  0.33040000  0.04380000  0.93500000  1.0 0.7194100365
P  P14  1  0.66960000  0.54380000  0.56500000  1.0 0.7194100365
P  P15  1  0.66960000  0.95620000  0.06500000  1.0 0.7194100365
P  P16  1  0.33040000  0.45620000  0.43500000  1.0 0.7194100365
O  O1  1  0.84680000  0.74160000  0.71890000  1.0 -0.8486876971
O  O2  1  0.15320000  0.24160000  0.78110000  1.0 -0.8434815511
O  O3  1  0.15320000  0.25840000  0.28110000  1.0 -0.8486876971
O  O4  1  0.84680000  0.75840000  0.21890000  1.0 -0.8486876971
O  O5  1  0.98070000  0.92950000  0.81770000  1.0 -0.8486876971
O  O6  1  0.01930000  0.42950000  0.68230000  1.0 -0.8486876971
O  O7  1  0.01930000  0.07050000  0.18230000  1.0 -0.8486876971
O  O8  1  0.98070000  0.57050000  0.31770000  1.0 -0.8486876971
O  O9  1  0.76540000  0.93220000  0.82920000  1.0 -0.8318822563
O  O10  1  0.23460000  0.43220000  0.67080000  1.0 -0.8318822563
O  O11  1  0.23460000  0.06780000  0.17080000  1.0 -0.8318822563
O  O12  1  0.76540000  0.56780000  0.32920000  1.0 -0.8318822563
O  O13  1  0.84880000  0.11780000  0.71790000  1.0 -0.8318822563
O  O14  1  0.15120000  0.61780000  0.78210000  1.0 -0.8318822563
O  O15  1  0.15120000  0.88220000  0.28210000  1.0 -0.8318822563
O  O16  1  0.84880000  0.38220000  0.21790000  1.0 -0.8318822563
O  O17  1  0.58950000  0.24820000  0.86350000  1.0 -0.7971714541
O  O18  1  0.41050000  0.74820000  0.63650000  1.0 -0.7971714541
O  O19  1  0.41050000  0.75180000  0.13650000  1.0 -0.7971714541
O  O20  1  0.58950000  0.25180000  0.36350000  1.0 -0.7971714541
O  O21  1  0.47370000  0.43760000  0.75410000  1.0 -0.8486876971
O  O22  1  0.52630000  0.93760000  0.74590000  1.0 -0.8486876971
O  O23  1  0.52630000  0.56240000  0.24590000  1.0 -0.8486876971
O  O24  1  0.47370000  0.06240000  0.25410000  1.0 -0.8486876971
O  O25  1  0.69000000  0.42830000  0.75960000  1.0 -0.8804199204
O  O26  1  0.31000000  0.92830000  0.74040000  1.0 -0.8804199204
O  O27  1  0.31000000  0.57170000  0.24040000  1.0 -0.8804199204
O  O28  1  0.69000000  0.07170000  0.25960000  1.0 -0.8804199204
O  O29  1  0.59480000  0.62250000  0.86210000  1.0 -0.7889945314
O  O30  1  0.40520000  0.12250000  0.63790000  1.0 -0.7889945314
O  O31  1  0.40520000  0.37750000  0.13790000  1.0 -0.7889945314
O  O32  1  0.59480000  0.87750000  0.36210000  1.0 -0.7889945314
O  O33  1  0.43560000  0.93050000  0.90510000  1.0 -0.5806022093
O  O34  1  0.56440000  0.43050000  0.59490000  1.0 -0.5806022093
O  O35  1  0.56440000  0.06950000  0.09490000  1.0 -0.5806022093
O  O36  1  0.43560000  0.56950000  0.40510000  1.0 -0.5806022093
O  O37  1  0.33220000  0.04670000  0.02110000  1.0 -0.529499577
O  O38  1  0.66780000  0.54670000  0.47890000  1.0 -0.529499577
O  O39  1  0.66780000  0.95330000  0.97890000  1.0 -0.529499577
O  O40  1  0.33220000  0.45330000  0.52110000  1.0 -0.529499577
O  O41  1  0.21760000  0.92870000  0.89800000  1.0 -0.529499577
O  O42  1  0.78240000  0.42870000  0.60200000  1.0 -0.5242166027
O  O43  1  0.78240000  0.07130000  0.10200000  1.0 -0.5242166027
O  O44  1  0.21760000  0.57130000  0.39800000  1.0 -0.5242166027
O  O45  1  0.32810000  0.67850000  0.98270000  1.0 -0.2540376887
O  O46  1  0.67190000  0.17850000  0.51730000  1.0 -0.2540376887
O  O47  1  0.67190000  0.32150000  0.01730000  1.0 -0.2540376887
O  O48  1  0.32810000  0.82150000  0.48270000  1.0 -0.2569047913
O  O49  1  0.33290000  0.28500000  0.92940000  1.0 -0.2990948066
O  O50  1  0.66710000  0.78500000  0.57060000  1.0 -0.293545346
O  O51  1  0.66710000  0.71500000  0.07060000  1.0 -0.293545346
O  O52  1  0.33290000  0.21500000  0.42940000  1.0 -0.2990948066
F  F1  1  0.92160000  0.43040000  0.83169000  1.0 -0.6003389314
F  F2  1  0.07840000  0.93040000  0.66831000  1.0 -0.6003389314
F  F3  1  0.07840000  0.56960000  0.16831000  1.0 -0.6003389314
F  F4  1  0.92160000  0.06960000  0.33169000  1.0 -0.6003389314
