# DDEC6 charges by PACMAN v1.1 (https://github.com/mtap-research/PACMAN-charge/)
data_WUXYUL_ASR_pacman
_symmetry_space_group_name_H-M   'P 1'
_cell_length_a   12.07900000
_cell_length_b   5.24190000
_cell_length_c   21.25400000
_cell_angle_alpha   90.00000000
_cell_angle_beta   103.88600000
_cell_angle_gamma   90.00000000
_symmetry_Int_Tables_number   1
_chemical_formula_structural   Na4H22C26N2O11
_chemical_formula_sum   'Na8 H44 C52 N4 O22'
_cell_volume   1306.40862942
_cell_formula_units_Z   2
loop_
 _symmetry_equiv_pos_site_id
 _symmetry_equiv_pos_as_xyz
  1  'x, y, z'
loop_
 _atom_site_type_symbol
 _atom_site_label
 _atom_site_symmetry_multiplicity
 _atom_site_fract_x
 _atom_site_fract_y
 _atom_site_fract_z
 _atom_site_occupancy
 _atom_site_charge
Na  Na1  1  0.59340000  0.33000000  0.03160000  1.0 0.8522872347
Na  Na2  1  0.40660000  0.83000000  0.96840000  1.0 0.8522872347
Na  Na3  1  0.33590000  0.28600000  0.06870000  1.0 0.8384983707
Na  Na4  1  0.66410000  0.78600000  0.93130000  1.0 0.8384983707
Na  Na5  1  0.11490000  0.84900000  0.97580000  1.0 0.8522872347
Na  Na6  1  0.88510000  0.34900000  0.02420000  1.0 0.8522872347
Na  Na7  1  0.17620000  0.18700000  0.18540000  1.0 0.8384983707
Na  Na8  1  0.82380000  0.68700000  0.81460000  1.0 0.8384983707
H  H1  1  0.07840000  0.63940000  0.09130000  1.0 0.3880701381
H  H2  1  0.92160000  0.13940000  0.90870000  1.0 0.3880701381
H  H3  1  0.97850000  0.83970000  0.06650000  1.0 0.3730416912
H  H4  1  0.02150000  0.33970000  0.93350000  1.0 0.3730416912
H  H5  1  0.16220000  0.46280000  0.73980000  1.0 0.2798725832
H  H6  1  0.83780000  0.96280000  0.26020000  1.0 0.2798725832
H  H7  1  0.40850000  0.84170000  0.27660000  1.0 0.2798725832
H  H8  1  0.59150000  0.34170000  0.72340000  1.0 0.2798725832
H  H9  1  0.42250000  0.48720000  0.18350000  1.0 0.0895902943
H  H10  1  0.57750000  0.98720000  0.81650000  1.0 0.0895902943
H  H11  1  0.22970000  0.72500000  0.85560000  1.0 0.0980559718
H  H12  1  0.77030000  0.22500000  0.14440000  1.0 0.0980559718
H  H13  1  0.26350000  0.25020000  0.84740000  1.0 0.1483392473
H  H14  1  0.73650000  0.75020000  0.15260000  1.0 0.1483392473
H  H15  1  0.13370000  0.22500000  0.85150000  1.0 0.1483392473
H  H16  1  0.86630000  0.72500000  0.14850000  1.0 0.1483392473
H  H17  1  0.48370000  0.01880000  0.19100000  1.0 0.1346288639
H  H18  1  0.51630000  0.51880000  0.80900000  1.0 0.1346288639
H  H19  1  0.57050000  0.78170000  0.20280000  1.0 0.1431394237
H  H20  1  0.42950000  0.28170000  0.79720000  1.0 0.1431394237
H  H21  1  0.44570000  0.86450000  0.37700000  1.0 0.1102540377
H  H22  1  0.55430000  0.36450000  0.62300000  1.0 0.1102540377
H  H23  1  0.22310000  0.29310000  0.45840000  1.0 0.1102540377
H  H24  1  0.77690000  0.79310000  0.54160000  1.0 0.1102540377
H  H25  1  0.42290000  0.90970000  0.48200000  1.0 0.1102540377
H  H26  1  0.57710000  0.40970000  0.51800000  1.0 0.1102540377
H  H27  1  0.25100000  0.23380000  0.35620000  1.0 0.1211299914
H  H28  1  0.74900000  0.73380000  0.64380000  1.0 0.1211299914
H  H29  1  0.44800000  0.78390000  0.58260000  1.0 0.0895902943
H  H30  1  0.55200000  0.28390000  0.41740000  1.0 0.0895902943
H  H31  1  0.42740000  0.84500000  0.69100000  1.0 0.0980559718
H  H32  1  0.57260000  0.34500000  0.30900000  1.0 0.0980559718
H  H33  1  0.10990000  0.54610000  0.63570000  1.0 0.1102540377
H  H34  1  0.89010000  0.04610000  0.36430000  1.0 0.1102540377
H  H35  1  0.12920000  0.48720000  0.53080000  1.0 0.1102540377
H  H36  1  0.87080000  0.98720000  0.46920000  1.0 0.1102540377
H  H37  1  0.26350000  0.31570000  0.67360000  1.0 0.0895902943
H  H38  1  0.73650000  0.81570000  0.32640000  1.0 0.0895902943
H  H39  1  0.27970000  0.26950000  0.56480000  1.0 0.0895902943
H  H40  1  0.72030000  0.76950000  0.43520000  1.0 0.0895902943
H  H41  1  0.36440000  0.01480000  0.56340000  1.0 0.0895902943
H  H42  1  0.63560000  0.51480000  0.43660000  1.0 0.0895902943
H  H43  1  0.33290000  0.06540000  0.66480000  1.0 0.0895902943
H  H44  1  0.66710000  0.56540000  0.33520000  1.0 0.0895902943
C  C1  1  0.35900000  0.50200000  0.28830000  1.0 0.4432929772
C  C2  1  0.64100000  0.00200000  0.71170000  1.0 0.4432929772
C  C3  1  0.34700000  0.54800000  0.35640000  1.0 -0.0236519738
C  C4  1  0.65300000  0.04800000  0.64360000  1.0 -0.0236519738
C  C5  1  0.24000000  0.34100000  0.93720000  1.0 0.6645938772
C  C6  1  0.76000000  0.84100000  0.06280000  1.0 0.6645938772
C  C7  1  0.40000000  0.66700000  0.18960000  1.0 0.0124047291
C  C8  1  0.60000000  0.16700000  0.81040000  1.0 0.0124047291
C  C9  1  0.17600000  0.59700000  0.83000000  1.0 0.0403000842
C  C10  1  0.82400000  0.09700000  0.17000000  1.0 0.0403000842
C  C11  1  0.49100000  0.83500000  0.10290000  1.0 0.6645938772
C  C12  1  0.50900000  0.33500000  0.89710000  1.0 0.6645938772
C  C13  1  0.20300000  0.33300000  0.86400000  1.0 -0.4011663702
C  C14  1  0.79700000  0.83300000  0.13600000  1.0 -0.4011663702
C  C15  1  0.49500000  0.84200000  0.17750000  1.0 -0.4011663702
C  C16  1  0.50500000  0.34200000  0.82250000  1.0 -0.4011663702
C  C17  1  0.31800000  0.60700000  0.48270000  1.0 0.0124047291
C  C18  1  0.68200000  0.10700000  0.51730000  1.0 0.0124047291
C  C19  1  0.29800000  0.63700000  0.54850000  1.0 0.0403000842
C  C20  1  0.70200000  0.13700000  0.45150000  1.0 0.0403000842
C  C21  1  0.27000000  0.70300000  0.67320000  1.0 0.0005356203
C  C22  1  0.73000000  0.20300000  0.32680000  1.0 0.0005356203
C  C23  1  0.40000000  0.74700000  0.39360000  1.0 -0.172699539
C  C24  1  0.60000000  0.24700000  0.60640000  1.0 -0.172699539
C  C25  1  0.28600000  0.71400000  0.14300000  1.0 0.5812366027
C  C26  1  0.71400000  0.21400000  0.85700000  1.0 0.5812366027
C  C27  1  0.25200000  0.74100000  0.74140000  1.0 0.4045956302
C  C28  1  0.74800000  0.24100000  0.25860000  1.0 0.4045956302
C  C29  1  0.27000000  0.41100000  0.44270000  1.0 -0.1580068153
C  C30  1  0.73000000  0.91100000  0.55730000  1.0 -0.1580068153
C  C31  1  0.38600000  0.77300000  0.45610000  1.0 -0.222852124
C  C32  1  0.61400000  0.27300000  0.54390000  1.0 -0.222852124
C  C33  1  0.28400000  0.37600000  0.38120000  1.0 -0.0793949534
C  C34  1  0.71600000  0.87600000  0.61880000  1.0 -0.0793949534
C  C35  1  0.05100000  0.68000000  0.83160000  1.0 0.5369555372
C  C36  1  0.94900000  0.18000000  0.16840000  1.0 0.5369555372
C  C37  1  0.37900000  0.73500000  0.59300000  1.0 -0.0296835173
C  C38  1  0.62100000  0.23500000  0.40700000  1.0 -0.0296835173
C  C39  1  0.36700000  0.77300000  0.65880000  1.0 -0.0236519738
C  C40  1  0.63300000  0.27300000  0.34120000  1.0 -0.0236519738
C  C41  1  0.17900000  0.59400000  0.62500000  1.0 -0.0927194339
C  C42  1  0.82100000  0.09400000  0.37500000  1.0 -0.0927194339
C  C43  1  0.18900000  0.55900000  0.56310000  1.0 -0.0793949534
C  C44  1  0.81100000  0.05900000  0.43690000  1.0 -0.0793949534
C  C45  1  0.27100000  0.46100000  0.64830000  1.0 -0.1078442764
C  C46  1  0.72900000  0.96100000  0.35170000  1.0 -0.1078442764
C  C47  1  0.28300000  0.43500000  0.58300000  1.0 -0.0927194339
C  C48  1  0.71700000  0.93500000  0.41700000  1.0 -0.0927194339
C  C49  1  0.33200000  0.88100000  0.58300000  1.0 -0.0358745512
C  C50  1  0.66800000  0.38100000  0.41700000  1.0 -0.0358745512
C  C51  1  0.31500000  0.90800000  0.64250000  1.0 -0.0568329786
C  C52  1  0.68500000  0.40800000  0.35750000  1.0 -0.0568329786
N  N1  1  0.19470000  0.58900000  0.76490000  1.0 -0.277164964
N  N2  1  0.80530000  0.08900000  0.23510000  1.0 -0.277164964
N  N3  1  0.39160000  0.69400000  0.25680000  1.0 -0.3640609514
N  N4  1  0.60840000  0.19400000  0.74320000  1.0 -0.3640609514
O  O1  1  0.25340000  0.54100000  0.96830000  1.0 -0.670871852
O  O2  1  0.74660000  0.04100000  0.03170000  1.0 -0.670871852
O  O3  1  0.49990000  0.02900000  0.07450000  1.0 -0.670871852
O  O4  1  0.50010000  0.52900000  0.92550000  1.0 -0.670871852
O  O5  1  0.25890000  0.12200000  0.96360000  1.0 -0.7678071242
O  O6  1  0.74110000  0.62200000  0.03640000  1.0 -0.7678071242
O  O7  1  0.01940000  0.69400000  0.05280000  1.0 -0.8681614083
O  O8  1  0.98060000  0.19400000  0.94720000  1.0 -0.8681614083
O  O9  1  0.01640000  0.64700000  0.87950000  1.0 -0.5972298366
O  O10  1  0.98360000  0.14700000  0.12050000  1.0 -0.5972298366
O  O11  1  0.47910000  0.60400000  0.07940000  1.0 -0.7631495875
O  O12  1  0.52090000  0.10400000  0.92060000  1.0 -0.7631495875
O  O13  1  0.22060000  0.52700000  0.12690000  1.0 -0.6598619503
O  O14  1  0.77940000  0.02700000  0.87310000  1.0 -0.6598619503
O  O15  1  0.26470000  0.93700000  0.12250000  1.0 -0.670871852
O  O16  1  0.73530000  0.43700000  0.87750000  1.0 -0.670871852
O  O17  1  0.34440000  0.28000000  0.26530000  1.0 -0.5926772338
O  O18  1  0.65560000  0.78000000  0.73470000  1.0 -0.5926772338
O  O19  1  0.99670000  0.83500000  0.78290000  1.0 -0.6598619503
O  O20  1  0.00330000  0.33500000  0.21710000  1.0 -0.6598619503
O  O21  1  0.31100000  0.92400000  0.77460000  1.0 -0.543892799
O  O22  1  0.68900000  0.42400000  0.22540000  1.0 -0.543892799
