# DDEC6 charges by PACMAN v1.1 (https://github.com/mtap-research/PACMAN-charge/)
data_WUXZAS_ASR_pacman
_symmetry_space_group_name_H-M   'P 1'
_cell_length_a   11.98070000
_cell_length_b   5.23450000
_cell_length_c   21.79600000
_cell_angle_alpha   90.00000000
_cell_angle_beta   99.27000000
_cell_angle_gamma   90.00000000
_symmetry_Int_Tables_number   1
_chemical_formula_structural   Na2H7C11NO5
_chemical_formula_sum   'Na8 H28 C44 N4 O20'
_cell_volume   1349.04064411
_cell_formula_units_Z   4
loop_
 _symmetry_equiv_pos_site_id
 _symmetry_equiv_pos_as_xyz
  1  'x, y, z'
loop_
 _atom_site_type_symbol
 _atom_site_label
 _atom_site_symmetry_multiplicity
 _atom_site_fract_x
 _atom_site_fract_y
 _atom_site_fract_z
 _atom_site_occupancy
 _atom_site_charge
Na  Na1  1  0.57307000  0.68064000  0.02645000  1.0 0.8574553018
Na  Na2  1  0.42693000  0.18064000  0.97355000  1.0 0.8574553018
Na  Na3  1  0.31930000  0.72908000  0.06179000  1.0 0.8574553018
Na  Na4  1  0.68070000  0.22908000  0.93821000  1.0 0.8574553018
Na  Na5  1  0.13431000  0.13988000  0.96312000  1.0 0.8726730829
Na  Na6  1  0.86569000  0.63988000  0.03688000  1.0 0.8726730829
Na  Na7  1  0.15575000  0.82477000  0.18070000  1.0 0.8512508457
Na  Na8  1  0.84425000  0.32477000  0.81930000  1.0 0.8512508457
H  H1  1  0.41427000  0.15394000  0.27567000  1.0 0.2816901168
H  H2  1  0.58573000  0.65394000  0.72433000  1.0 0.2816901168
H  H3  1  0.19987000  0.64088000  0.74671000  1.0 0.2816901168
H  H4  1  0.80013000  0.14088000  0.25329000  1.0 0.2816901168
H  H5  1  0.43837000  0.12007000  0.36757000  1.0 0.0998666992
H  H6  1  0.56163000  0.62007000  0.63243000  1.0 0.0998666992
H  H7  1  0.50571000  0.99432000  0.18738000  1.0 0.1401787286
H  H8  1  0.49429000  0.49432000  0.81262000  1.0 0.1401787286
H  H9  1  0.23334000  0.86576000  0.84097000  1.0 0.1401787286
H  H10  1  0.76666000  0.36576000  0.15903000  1.0 0.1401787286
H  H11  1  0.40821000  0.54596000  0.17753000  1.0 0.0719708612
H  H12  1  0.59179000  0.04596000  0.82247000  1.0 0.0719708612
H  H13  1  0.42463000  0.08735000  0.47697000  1.0 0.0998666992
H  H14  1  0.57537000  0.58735000  0.52303000  1.0 0.0998666992
H  H15  1  0.23786000  0.81414000  0.35339000  1.0 0.1199165171
H  H16  1  0.76214000  0.31414000  0.64661000  1.0 0.1199165171
H  H17  1  0.23219000  0.79459000  0.46615000  1.0 0.0998666992
H  H18  1  0.76781000  0.29459000  0.53385000  1.0 0.0998666992
H  H19  1  0.23825000  0.27123000  0.85296000  1.0 0.0719708612
H  H20  1  0.76175000  0.77123000  0.14704000  1.0 0.0719708612
H  H21  1  0.44929000  0.13667000  0.56806000  1.0 0.0998666992
H  H22  1  0.55071000  0.63667000  0.43194000  1.0 0.0998666992
H  H23  1  0.16455000  0.66074000  0.54198000  1.0 0.1077540664
H  H24  1  0.83545000  0.16074000  0.45802000  1.0 0.1077540664
H  H25  1  0.14564000  0.61265000  0.65166000  1.0 0.1077540664
H  H26  1  0.85436000  0.11265000  0.34834000  1.0 0.1077540664
H  H27  1  0.41821000  0.06308000  0.67687000  1.0 0.0998666992
H  H28  1  0.58179000  0.56308000  0.32313000  1.0 0.0998666992
C  C1  1  0.30895000  0.40290000  0.54615000  1.0 0.0775507065
C  C2  1  0.69105000  0.90290000  0.45385000  1.0 0.0775507065
C  C3  1  0.24616000  0.69915000  0.93391000  1.0 0.6554167753
C  C4  1  0.75384000  0.19915000  0.06609000  1.0 0.6554167753
C  C5  1  0.38874000  0.26674000  0.38739000  1.0 -0.0975635762
C  C6  1  0.61126000  0.76674000  0.61261000  1.0 -0.0975635762
C  C7  1  0.32012000  0.42906000  0.47992000  1.0 0.0775507065
C  C8  1  0.67988000  0.92906000  0.52008000  1.0 0.0775507065
C  C9  1  0.47963000  0.20027000  0.09870000  1.0 0.65356319
C  C10  1  0.52037000  0.70027000  0.90130000  1.0 0.65356319
C  C11  1  0.28388000  0.33950000  0.67234000  1.0 -0.0425034633
C  C12  1  0.71612000  0.83950000  0.32766000  1.0 -0.0425034633
C  C13  1  0.33797000  0.50582000  0.28445000  1.0 0.4859145617
C  C14  1  0.66203000  0.00582000  0.71555000  1.0 0.4859145617
C  C15  1  0.47785000  0.17778000  0.16527000  1.0 -0.3401715869
C  C16  1  0.52215000  0.67778000  0.83473000  1.0 -0.3401715869
C  C17  1  0.33448000  0.46766000  0.35177000  1.0 -0.0425034633
C  C18  1  0.66552000  0.96766000  0.64823000  1.0 -0.0425034633
C  C19  1  0.23220000  0.68317000  0.86685000  1.0 -0.3693537329
C  C20  1  0.76780000  0.18317000  0.13315000  1.0 -0.3693537329
C  C21  1  0.39354000  0.34050000  0.18754000  1.0 0.0775507065
C  C22  1  0.60646000  0.84050000  0.81246000  1.0 0.0775507065
C  C23  1  0.27675000  0.29054000  0.73923000  1.0 0.4782169347
C  C24  1  0.72325000  0.79054000  0.26077000  1.0 0.4782169347
C  C25  1  0.38109000  0.24696000  0.45069000  1.0 -0.1241854543
C  C26  1  0.61891000  0.74696000  0.54931000  1.0 -0.1241854543
C  C27  1  0.27726000  0.65484000  0.38121000  1.0 -0.0790887682
C  C28  1  0.72274000  0.15484000  0.61879000  1.0 -0.0790887682
C  C29  1  0.27158000  0.27446000  0.14445000  1.0 0.6038489824
C  C30  1  0.72842000  0.77446000  0.85555000  1.0 0.6038489824
C  C31  1  0.27141000  0.63786000  0.44436000  1.0 -0.1302516301
C  C32  1  0.72859000  0.13786000  0.55564000  1.0 -0.1302516301
C  C33  1  0.19762000  0.45019000  0.83124000  1.0 0.0998666992
C  C34  1  0.80238000  0.95019000  0.16876000  1.0 0.0998666992
C  C35  1  0.37985000  0.23552000  0.58515000  1.0 -0.1302516301
C  C36  1  0.62015000  0.73552000  0.41485000  1.0 -0.1302516301
C  C37  1  0.22507000  0.53848000  0.57145000  1.0 -0.1302516301
C  C38  1  0.77493000  0.03848000  0.42855000  1.0 -0.1302516301
C  C39  1  0.21388000  0.50868000  0.63395000  1.0 -0.0868314917
C  C40  1  0.78612000  0.00868000  0.36605000  1.0 -0.0868314917
C  C41  1  0.36510000  0.19859000  0.64668000  1.0 -0.0790887682
C  C42  1  0.63490000  0.69859000  0.35332000  1.0 -0.0790887682
C  C43  1  0.93668000  0.91288000  0.17062000  1.0 0.5843756681
C  C44  1  0.06332000  0.41288000  0.82938000  1.0 0.5843756681
N  N1  1  0.38752000  0.31971000  0.25368000  1.0 -0.3610688463
N  N2  1  0.61248000  0.81971000  0.74632000  1.0 -0.3610688463
N  N3  1  0.22059000  0.47048000  0.76807000  1.0 -0.3693537329
N  N4  1  0.77941000  0.97048000  0.23193000  1.0 -0.3610688463
O  O1  1  0.51060000  0.00683000  0.06889000  1.0 -0.7421483213
O  O2  1  0.48940000  0.50683000  0.93111000  1.0 -0.7421483213
O  O3  1  0.29466000  0.90327000  0.95966000  1.0 -0.8081620449
O  O4  1  0.70534000  0.40327000  0.04034000  1.0 -0.8081620449
O  O5  1  0.21126000  0.52293000  0.96787000  1.0 -0.7187170798
O  O6  1  0.78874000  0.02293000  0.03213000  1.0 -0.7187170798
O  O7  1  0.43796000  0.40630000  0.07118000  1.0 -0.7596591229
O  O8  1  0.56204000  0.90630000  0.92882000  1.0 -0.7596591229
O  O9  1  0.19652000  0.44189000  0.14260000  1.0 -0.6219951326
O  O10  1  0.80348000  0.94189000  0.85740000  1.0 -0.6219951326
O  O11  1  0.29733000  0.70642000  0.25855000  1.0 -0.5688312764
O  O12  1  0.70267000  0.20642000  0.74145000  1.0 -0.5688312764
O  O13  1  0.26380000  0.06193000  0.11560000  1.0 -0.6905909145
O  O14  1  0.73620000  0.56193000  0.88440000  1.0 -0.6905909145
O  O15  1  0.96666000  0.79050000  0.12536000  1.0 -0.6905909145
O  O16  1  0.03334000  0.29050000  0.87464000  1.0 -0.6905909145
O  O17  1  0.99809000  0.01091000  0.21652000  1.0 -0.5837861413
O  O18  1  0.00191000  0.51091000  0.78348000  1.0 -0.5837861413
O  O19  1  0.32112000  0.09526000  0.76546000  1.0 -0.4923207427
O  O20  1  0.67888000  0.59526000  0.23454000  1.0 -0.4923207427
