# DDEC6 charges by PACMAN v1.1 (https://github.com/mtap-research/PACMAN-charge/)
data_WUYWOE_ASR_pacman
_symmetry_space_group_name_H-M   'P 1'
_cell_length_a   15.64690000
_cell_length_b   18.47100000
_cell_length_c   27.45000000
_cell_angle_alpha   99.52500000
_cell_angle_beta   90.06300000
_cell_angle_gamma   103.87600000
_symmetry_Int_Tables_number   1
_chemical_formula_structural   Cd3H62(C11O3)8
_chemical_formula_sum   'Cd6 H124 C176 O48'
_cell_volume   7588.83300076
_cell_formula_units_Z   2
loop_
 _symmetry_equiv_pos_site_id
 _symmetry_equiv_pos_as_xyz
  1  'x, y, z'
loop_
 _atom_site_type_symbol
 _atom_site_label
 _atom_site_symmetry_multiplicity
 _atom_site_fract_x
 _atom_site_fract_y
 _atom_site_fract_z
 _atom_site_occupancy
 _atom_site_charge
Cd  Cd1  1  0.50000000  0.50000000  0.00000000  1.0 1.1209368426
Cd  Cd2  1  0.54771000  0.67492000  0.08798000  1.0 0.9903195518
Cd  Cd3  1  0.45229000  0.32508000  0.91202000  1.0 0.9903195518
Cd  Cd4  1  0.00000000  0.00000000  0.50000000  1.0 1.1048696953
Cd  Cd5  1  0.09270000  0.16377000  0.58609000  1.0 1.0125900227
Cd  Cd6  1  0.90730000  0.83623000  0.41391000  1.0 1.0125900227
H  H1  1  0.57810000  0.59900000  0.91520000  1.0 0.1208716548
H  H2  1  0.42190000  0.40100000  0.08480000  1.0 0.1208716548
H  H3  1  0.56320000  0.59970000  0.83140000  1.0 0.1283173067
H  H4  1  0.43680000  0.40030000  0.16860000  1.0 0.1283173067
H  H5  1  0.45370000  0.77710000  0.86130000  1.0 0.1208716548
H  H6  1  0.54630000  0.22290000  0.13870000  1.0 0.1208716548
H  H7  1  0.46800000  0.77350000  0.94370000  1.0 0.1283173067
H  H8  1  0.53200000  0.22650000  0.05630000  1.0 0.1283173067
H  H9  1  0.43190000  0.56530000  0.77440000  1.0 0.1208716548
H  H10  1  0.56810000  0.43470000  0.22560000  1.0 0.1208716548
H  H11  1  0.42410000  0.50110000  0.62010000  1.0 0.1119344304
H  H12  1  0.57590000  0.49890000  0.37990000  1.0 0.1119344304
H  H13  1  0.34320000  0.38300000  0.58850000  1.0 0.1283173067
H  H14  1  0.65680000  0.61700000  0.41150000  1.0 0.1283173067
H  H15  1  0.20330000  0.38060000  0.71190000  1.0 0.1208716548
H  H16  1  0.79670000  0.61940000  0.28810000  1.0 0.1208716548
H  H17  1  0.29070000  0.49750000  0.74520000  1.0 0.1208716548
H  H18  1  0.70930000  0.50250000  0.25480000  1.0 0.1208716548
H  H19  1  0.53030000  0.95420000  0.61110000  1.0 0.1208716548
H  H20  1  0.46970000  0.04580000  0.38890000  1.0 0.1208716548
H  H21  1  0.50460000  0.60150000  0.59540000  1.0 0.1208716548
H  H22  1  0.49540000  0.39850000  0.40460000  1.0 0.1208716548
H  H23  1  0.52800000  0.68980000  0.61090000  1.0 0.1119344304
H  H24  1  0.47200000  0.31020000  0.38910000  1.0 0.1119344304
H  H25  1  0.46090000  0.65050000  0.56640000  1.0 0.1397541668
H  H26  1  0.53910000  0.34950000  0.43360000  1.0 0.1397541668
H  H27  1  0.65510000  0.87830000  0.79900000  1.0 0.1208716548
H  H28  1  0.34490000  0.12170000  0.20100000  1.0 0.1208716548
H  H29  1  0.65910000  0.79750000  0.77220000  1.0 0.1119344304
H  H30  1  0.34090000  0.20250000  0.22780000  1.0 0.1119344304
H  H31  1  0.62990000  0.80920000  0.82690000  1.0 0.1119344304
H  H32  1  0.37010000  0.19080000  0.17310000  1.0 0.1119344304
H  H33  1  0.75250000  0.77190000  0.65200000  1.0 0.1283173067
H  H34  1  0.24750000  0.22810000  0.34800000  1.0 0.1283173067
H  H35  1  0.69600000  0.79740000  0.61390000  1.0 0.1208716548
H  H36  1  0.30400000  0.20260000  0.38610000  1.0 0.1208716548
H  H37  1  0.66520000  0.71650000  0.62790000  1.0 0.1208716548
H  H38  1  0.33480000  0.28350000  0.37210000  1.0 0.1208716548
H  H39  1  0.31800000  0.87360000  0.71660000  1.0 0.1119344304
H  H40  1  0.68200000  0.12640000  0.28340000  1.0 0.1119344304
H  H41  1  0.34620000  0.81840000  0.74760000  1.0 0.1283173067
H  H42  1  0.65380000  0.18160000  0.25240000  1.0 0.1283173067
H  H43  1  0.24990000  0.79970000  0.72480000  1.0 0.1208716548
H  H44  1  0.75010000  0.20030000  0.27520000  1.0 0.1208716548
H  H45  1  0.27990000  0.81320000  0.58900000  1.0 0.1208716548
H  H46  1  0.72010000  0.18680000  0.41100000  1.0 0.1208716548
H  H47  1  0.16980000  0.86670000  0.56270000  1.0 0.1208716548
H  H48  1  0.83020000  0.13330000  0.43730000  1.0 0.1208716548
H  H49  1  0.30540000  0.07010000  0.63250000  1.0 0.1397541668
H  H50  1  0.69460000  0.92990000  0.36750000  1.0 0.1397541668
H  H51  1  0.41420000  0.01790000  0.65730000  1.0 0.1208716548
H  H52  1  0.58580000  0.98210000  0.34270000  1.0 0.1208716548
H  H53  1  0.73190000  0.94790000  0.70390000  1.0 0.1208716548
H  H54  1  0.26810000  0.05210000  0.29610000  1.0 0.1208716548
H  H55  1  0.66580000  0.92970000  0.56130000  1.0 0.1283173067
H  H56  1  0.33420000  0.07030000  0.43870000  1.0 0.1283173067
H  H57  1  0.80160000  0.00280000  0.54880000  1.0 0.1397541668
H  H58  1  0.19840000  0.99720000  0.45120000  1.0 0.1397541668
H  H59  1  0.86140000  0.02930000  0.69480000  1.0 0.1283173067
H  H60  1  0.13860000  0.97070000  0.30520000  1.0 0.1283173067
H  H61  1  0.98790000  0.27640000  0.45480000  1.0 0.1283173067
H  H62  1  0.01210000  0.72360000  0.54520000  1.0 0.1283173067
H  H63  1  0.94020000  0.27720000  0.37620000  1.0 0.1283173067
H  H64  1  0.05980000  0.72280000  0.62380000  1.0 0.1283173067
H  H65  1  0.02300000  0.08950000  0.32720000  1.0 0.1283173067
H  H66  1  0.97700000  0.91050000  0.67280000  1.0 0.1283173067
H  H67  1  0.06940000  0.08880000  0.40560000  1.0 0.1119344304
H  H68  1  0.93060000  0.91120000  0.59440000  1.0 0.1119344304
H  H69  1  0.87910000  0.07030000  0.28080000  1.0 0.1283173067
H  H70  1  0.12090000  0.92970000  0.71920000  1.0 0.1283173067
H  H71  1  0.72440000  0.01250000  0.25020000  1.0 0.1208716548
H  H72  1  0.27560000  0.98750000  0.74980000  1.0 0.1208716548
H  H73  1  0.64000000  0.89430000  0.21440000  1.0 0.1283173067
H  H74  1  0.36000000  0.10570000  0.78560000  1.0 0.1283173067
H  H75  1  0.99890000  0.49430000  0.17600000  1.0 0.1208716548
H  H76  1  0.00110000  0.50570000  0.82400000  1.0 0.1208716548
H  H77  1  0.83010000  0.39460000  0.27590000  1.0 0.1208716548
H  H78  1  0.16990000  0.60540000  0.72410000  1.0 0.1208716548
H  H79  1  0.73360000  0.33870000  0.27590000  1.0 0.1208716548
H  H80  1  0.26640000  0.66130000  0.72410000  1.0 0.1208716548
H  H81  1  0.12680000  0.36530000  0.32340000  1.0 0.1283173067
H  H82  1  0.87320000  0.63470000  0.67660000  1.0 0.1283173067
H  H83  1  0.13020000  0.31530000  0.27170000  1.0 0.1208716548
H  H84  1  0.86980000  0.68470000  0.72830000  1.0 0.1208716548
H  H85  1  0.10450000  0.27690000  0.31820000  1.0 0.1006042044
H  H86  1  0.89550000  0.72310000  0.68180000  1.0 0.1006042044
H  H87  1  0.14510000  0.22900000  0.13770000  1.0 0.1208716548
H  H88  1  0.85490000  0.77100000  0.86230000  1.0 0.1208716548
H  H89  1  0.04540000  0.22330000  0.12600000  1.0 0.1208716548
H  H90  1  0.95460000  0.77670000  0.87400000  1.0 0.1208716548
H  H91  1  0.07300000  0.19210000  0.17180000  1.0 0.1208716548
H  H92  1  0.92700000  0.80790000  0.82820000  1.0 0.1208716548
H  H93  1  0.73310000  0.13520000  0.10640000  1.0 0.1283173067
H  H94  1  0.26690000  0.86480000  0.89360000  1.0 0.1283173067
H  H95  1  0.73090000  0.19980000  0.15090000  1.0 0.1283173067
H  H96  1  0.26910000  0.80020000  0.84910000  1.0 0.1283173067
H  H97  1  0.72110000  0.11670000  0.16010000  1.0 0.1119344304
H  H98  1  0.27890000  0.88330000  0.83990000  1.0 0.1119344304
H  H99  1  0.73230000  0.35010000  0.13310000  1.0 0.1208716548
H  H100  1  0.26770000  0.64990000  0.86690000  1.0 0.1208716548
H  H101  1  0.63200000  0.40240000  0.09920000  1.0 0.1208716548
H  H102  1  0.36800000  0.59760000  0.90080000  1.0 0.1208716548
H  H103  1  0.77440000  0.60680000  0.16120000  1.0 0.1397541668
H  H104  1  0.22560000  0.39320000  0.83880000  1.0 0.1397541668
H  H105  1  0.87780000  0.55400000  0.18850000  1.0 0.1283173067
H  H106  1  0.12220000  0.44600000  0.81150000  1.0 0.1283173067
H  H107  1  0.14660000  0.35420000  0.09270000  1.0 0.1208716548
H  H108  1  0.85340000  0.64580000  0.90730000  1.0 0.1208716548
H  H109  1  0.27720000  0.41920000  0.06210000  1.0 0.1208716548
H  H110  1  0.72280000  0.58080000  0.93790000  1.0 0.1208716548
H  H111  1  0.27960000  0.60470000  0.16180000  1.0 0.1283173067
H  H112  1  0.72040000  0.39530000  0.83820000  1.0 0.1283173067
H  H113  1  0.14560000  0.54440000  0.18840000  1.0 0.1208716548
H  H114  1  0.85440000  0.45560000  0.81160000  1.0 0.1283173067
H  H115  1  0.74210000  0.93450000  0.09420000  1.0 0.1208716548
H  H116  1  0.25790000  0.06550000  0.90580000  1.0 0.1208716548
H  H117  1  0.81340000  0.03580000  0.12490000  1.0 0.1119344304
H  H118  1  0.18660000  0.96420000  0.87510000  1.0 0.1119344304
H  H119  1  0.80800000  0.89650000  0.11660000  1.0 0.1208716548
H  H120  1  0.19200000  0.10350000  0.88340000  1.0 0.1208716548
H  H121  1  0.88050000  0.99770000  0.14630000  1.0 0.1283173067
H  H122  1  0.11950000  0.00230000  0.85370000  1.0 0.1283173067
H  H123  1  0.97310000  0.44940000  0.12270000  1.0 0.1283173067
H  H124  1  0.02690000  0.55060000  0.87730000  1.0 0.1283173067
C  C1  1  0.52710000  0.67970000  0.99090000  1.0 0.5864368397
C  C2  1  0.47290000  0.32030000  0.00910000  1.0 0.5864368397
C  C3  1  0.52400000  0.68420000  0.93740000  1.0 -0.0284040712
C  C4  1  0.47600000  0.31580000  0.06260000  1.0 -0.0284040712
C  C5  1  0.55210000  0.63420000  0.90450000  1.0 -0.0792848547
C  C6  1  0.44790000  0.36580000  0.09550000  1.0 -0.0792848547
C  C7  1  0.54280000  0.63460000  0.85370000  1.0 -0.1397266679
C  C8  1  0.45720000  0.36540000  0.14630000  1.0 -0.1397266679
C  C9  1  0.50400000  0.68550000  0.83590000  1.0 0.0904992887
C  C10  1  0.49600000  0.31450000  0.16410000  1.0 0.0904992887
C  C11  1  0.47740000  0.74020000  0.87150000  1.0 -0.1490075396
C  C12  1  0.52260000  0.25980000  0.12850000  1.0 -0.1490075396
C  C13  1  0.48670000  0.73820000  0.92070000  1.0 -0.0889064223
C  C14  1  0.51330000  0.26180000  0.07930000  1.0 -0.0889064223
C  C15  1  0.48420000  0.67840000  0.78260000  1.0 -0.0382050478
C  C16  1  0.51580000  0.32160000  0.21740000  1.0 -0.0382050478
C  C17  1  0.49990000  0.73700000  0.75480000  1.0 0.1581684468
C  C18  1  0.50010000  0.26300000  0.24520000  1.0 0.1581684468
C  C19  1  0.47640000  0.72620000  0.70480000  1.0 -0.098419359
C  C20  1  0.52360000  0.27380000  0.29520000  1.0 -0.098419359
C  C21  1  0.43490000  0.64980000  0.68070000  1.0 0.1875663269
C  C22  1  0.56510000  0.35020000  0.31930000  1.0 0.1875663269
C  C23  1  0.41680000  0.59070000  0.70750000  1.0 -0.0382050478
C  C24  1  0.58320000  0.40930000  0.29250000  1.0 -0.0382050478
C  C25  1  0.44260000  0.60550000  0.75700000  1.0 -0.1780062374
C  C26  1  0.55740000  0.39450000  0.24300000  1.0 -0.1780062374
C  C27  1  0.36540000  0.51410000  0.68550000  1.0 0.1006042044
C  C28  1  0.63460000  0.48590000  0.31450000  1.0 0.1006042044
C  C29  1  0.38000000  0.47700000  0.63860000  1.0 -0.1397266679
C  C30  1  0.62000000  0.52300000  0.36140000  1.0 -0.1397266679
C  C31  1  0.33120000  0.40640000  0.61960000  1.0 -0.0889064223
C  C32  1  0.66880000  0.59360000  0.38040000  1.0 -0.0889064223
C  C33  1  0.26230000  0.36790000  0.64650000  1.0 -0.0100196747
C  C34  1  0.73770000  0.63210000  0.35350000  1.0 -0.0100196747
C  C35  1  0.24820000  0.40440000  0.69350000  1.0 -0.0889064223
C  C36  1  0.75180000  0.59560000  0.30650000  1.0 -0.0889064223
C  C37  1  0.29960000  0.47520000  0.71330000  1.0 -0.1490075396
C  C38  1  0.70040000  0.52480000  0.28670000  1.0 -0.1490075396
C  C39  1  0.20760000  0.29230000  0.62360000  1.0 0.5320364851
C  C40  1  0.79240000  0.70770000  0.37640000  1.0 0.5320364851
C  C41  1  0.49250000  0.79030000  0.67770000  1.0 -0.098419359
C  C42  1  0.50750000  0.20970000  0.32230000  1.0 -0.098419359
C  C43  1  0.57750000  0.82530000  0.66560000  1.0 0.1706827897
C  C44  1  0.42250000  0.17470000  0.33440000  1.0 0.1706827897
C  C45  1  0.59180000  0.88870000  0.64220000  1.0 -0.0382050478
C  C46  1  0.40820000  0.11130000  0.35780000  1.0 -0.0382050478
C  C47  1  0.52050000  0.91360000  0.62810000  1.0 -0.198742978
C  C48  1  0.47950000  0.08640000  0.37190000  1.0 -0.198742978
C  C49  1  0.43250000  0.87900000  0.63880000  1.0 -0.0239938173
C  C50  1  0.56750000  0.12100000  0.36120000  1.0 -0.0239938173
C  C51  1  0.42250000  0.81780000  0.66440000  1.0 0.1581684468
C  C52  1  0.57750000  0.18220000  0.33560000  1.0 0.1502257951
C  C53  1  0.48200000  0.64590000  0.59830000  1.0 -0.2378784534
C  C54  1  0.51800000  0.35410000  0.40170000  1.0 -0.2378784534
C  C55  1  0.62790000  0.82520000  0.79550000  1.0 -0.2274077405
C  C56  1  0.37210000  0.17480000  0.20450000  1.0 -0.2274077405
C  C57  1  0.69370000  0.76850000  0.64010000  1.0 -0.2378784534
C  C58  1  0.30630000  0.23150000  0.35990000  1.0 -0.2378784534
C  C59  1  0.31070000  0.82150000  0.71980000  1.0 -0.2201152575
C  C60  1  0.68930000  0.17850000  0.28020000  1.0 -0.2201152575
C  C61  1  0.35960000  0.91020000  0.62480000  1.0 0.0803231317
C  C62  1  0.64040000  0.08980000  0.37520000  1.0 0.0803231317
C  C63  1  0.28560000  0.86520000  0.59710000  1.0 -0.1397266679
C  C64  1  0.71440000  0.13480000  0.40290000  1.0 -0.1397266679
C  C65  1  0.21910000  0.89710000  0.58120000  1.0 -0.0889064223
C  C66  1  0.78090000  0.10290000  0.41880000  1.0 -0.0889064223
C  C67  1  0.22890000  0.97530000  0.59390000  1.0 -0.0284040712
C  C68  1  0.77110000  0.02470000  0.40610000  1.0 -0.0284040712
C  C69  1  0.30060000  0.01850000  0.62290000  1.0 -0.0889064223
C  C70  1  0.69940000  0.98150000  0.37710000  1.0 -0.0889064223
C  C71  1  0.36590000  0.98720000  0.63810000  1.0 -0.1490075396
C  C72  1  0.63410000  0.01280000  0.36190000  1.0 -0.1490075396
C  C73  1  0.15870000  0.00890000  0.57570000  1.0 0.598181776
C  C74  1  0.84130000  0.99110000  0.42430000  1.0 0.598181776
C  C75  1  0.74440000  0.96170000  0.67310000  1.0 -0.1397266679
C  C76  1  0.25560000  0.03830000  0.32690000  1.0 -0.1295828652
C  C77  1  0.68140000  0.93320000  0.63460000  1.0 0.0803231317
C  C78  1  0.31860000  0.06680000  0.36540000  1.0 0.0803231317
C  C79  1  0.70570000  0.94960000  0.58810000  1.0 -0.1397266679
C  C80  1  0.29430000  0.05040000  0.41190000  1.0 -0.1397266679
C  C81  1  0.78670000  0.99420000  0.58050000  1.0 -0.0889064223
C  C82  1  0.21330000  0.00580000  0.41950000  1.0 -0.0889064223
C  C83  1  0.84640000  0.02650000  0.62000000  1.0 -0.0100196747
C  C84  1  0.15360000  0.97350000  0.38000000  1.0 -0.0100196747
C  C85  1  0.82260000  0.00860000  0.66760000  1.0 -0.098419359
C  C86  1  0.17740000  0.99140000  0.33240000  1.0 -0.098419359
C  C87  1  0.93530000  0.07550000  0.61170000  1.0 0.5758593697
C  C88  1  0.06470000  0.92450000  0.38830000  1.0 0.5758593697
C  C89  1  0.05640000  0.17490000  0.48940000  1.0 0.572111221
C  C90  1  0.94360000  0.82510000  0.51060000  1.0 0.572111221
C  C91  1  0.03330000  0.18050000  0.43970000  1.0 -0.0558313095
C  C92  1  0.96670000  0.81950000  0.56030000  1.0 -0.0558313095
C  C93  1  0.99450000  0.23840000  0.42930000  1.0 -0.0792848547
C  C94  1  0.00550000  0.76160000  0.57070000  1.0 -0.0792848547
C  C95  1  0.96650000  0.23920000  0.38210000  1.0 -0.1397266679
C  C96  1  0.03350000  0.76080000  0.61790000  1.0 -0.1397266679
C  C97  1  0.97670000  0.18440000  0.34320000  1.0 0.0904992887
C  C98  1  0.02330000  0.81560000  0.65680000  1.0 0.0904992887
C  C99  1  0.01580000  0.12710000  0.35280000  1.0 -0.1490075396
C  C100  1  0.98420000  0.87290000  0.64720000  1.0 -0.1490075396
C  C101  1  0.04300000  0.12680000  0.39990000  1.0 -0.0792848547
C  C102  1  0.95700000  0.87320000  0.60010000  1.0 -0.0792848547
C  C103  1  0.94170000  0.18130000  0.29290000  1.0 -0.0284040712
C  C104  1  0.05830000  0.81870000  0.70710000  1.0 -0.0382050478
C  C105  1  0.96090000  0.24380000  0.26800000  1.0 0.1502257951
C  C106  1  0.03910000  0.75620000  0.73200000  1.0 0.1502257951
C  C107  1  0.92890000  0.23970000  0.22050000  1.0 -0.0792848547
C  C108  1  0.07110000  0.76030000  0.77950000  1.0 -0.0792848547
C  C109  1  0.87160000  0.17060000  0.19630000  1.0 0.1581684468
C  C110  1  0.12840000  0.82940000  0.80370000  1.0 0.1581684468
C  C111  1  0.85680000  0.10640000  0.21790000  1.0 -0.0382050478
C  C112  1  0.14320000  0.89360000  0.78210000  1.0 -0.0382050478
C  C113  1  0.89070000  0.11320000  0.26590000  1.0 -0.198742978
C  C114  1  0.10930000  0.88680000  0.73410000  1.0 -0.198742978
C  C115  1  0.80370000  0.03140000  0.19300000  1.0 0.0803231317
C  C116  1  0.19630000  0.96860000  0.80700000  1.0 0.0803231317
C  C117  1  0.73570000  0.99140000  0.21850000  1.0 -0.1615013798
C  C118  1  0.26430000  0.00860000  0.78150000  1.0 -0.1615013798
C  C119  1  0.68450000  0.92030000  0.19680000  1.0 -0.098419359
C  C120  1  0.31550000  0.07970000  0.80320000  1.0 -0.098419359
C  C121  1  0.69960000  0.88870000  0.15020000  1.0 -0.0100196747
C  C122  1  0.30040000  0.11130000  0.84980000  1.0 -0.0100196747
C  C123  1  0.76780000  0.92880000  0.12510000  1.0 -0.1490075396
C  C124  1  0.23220000  0.07120000  0.87490000  1.0 -0.1490075396
C  C125  1  0.81940000  0.00060000  0.14650000  1.0 -0.2201152575
C  C126  1  0.18060000  0.99940000  0.85350000  1.0 -0.2201152575
C  C127  1  0.64680000  0.81060000  0.12560000  1.0 0.521999808
C  C128  1  0.35320000  0.18940000  0.87440000  1.0 0.521999808
C  C129  1  0.94650000  0.30910000  0.19580000  1.0 -0.0792848547
C  C130  1  0.05350000  0.69090000  0.80420000  1.0 -0.0792848547
C  C131  1  0.02790000  0.33750000  0.17840000  1.0 0.1581684468
C  C132  1  0.97210000  0.66250000  0.82160000  1.0 0.1581684468
C  C133  1  0.04580000  0.40670000  0.16030000  1.0 -0.0382050478
C  C134  1  0.95420000  0.59330000  0.83970000  1.0 -0.0382050478
C  C135  1  0.97890000  0.44370000  0.15690000  1.0 -0.2378784534
C  C136  1  0.02110000  0.55630000  0.84310000  1.0 -0.2378784534
C  C137  1  0.89170000  0.41180000  0.17250000  1.0 -0.0382050478
C  C138  1  0.10830000  0.58820000  0.82750000  1.0 -0.0382050478
C  C139  1  0.87980000  0.34630000  0.19200000  1.0 0.1581684468
C  C140  1  0.12020000  0.65370000  0.80800000  1.0 0.1581684468
C  C141  1  0.78570000  0.35440000  0.26010000  1.0 -0.2582702619
C  C142  1  0.21430000  0.64560000  0.73990000  1.0 -0.2582702619
C  C143  1  0.10020000  0.31840000  0.30220000  1.0 -0.2274077405
C  C144  1  0.89980000  0.68160000  0.69780000  1.0 -0.2274077405
C  C145  1  0.08950000  0.23100000  0.15190000  1.0 -0.2378784534
C  C146  1  0.91050000  0.76900000  0.84810000  1.0 -0.2378784534
C  C147  1  0.74930000  0.15380000  0.14070000  1.0 -0.2378784534
C  C148  1  0.25070000  0.84620000  0.85930000  1.0 -0.2378784534
C  C149  1  0.81990000  0.44560000  0.16140000  1.0 0.0803231317
C  C150  1  0.18010000  0.55440000  0.83860000  1.0 0.0803231317
C  C151  1  0.74300000  0.40250000  0.13680000  1.0 -0.1397266679
C  C152  1  0.25700000  0.59750000  0.86320000  1.0 -0.1397266679
C  C153  1  0.68130000  0.43300000  0.11750000  1.0 -0.0889064223
C  C154  1  0.31870000  0.56700000  0.88250000  1.0 -0.0889064223
C  C155  1  0.69510000  0.51110000  0.12630000  1.0 -0.0100196747
C  C156  1  0.30490000  0.48890000  0.87370000  1.0 -0.0100196747
C  C157  1  0.76720000  0.55470000  0.15380000  1.0 -0.0889064223
C  C158  1  0.23280000  0.44530000  0.84620000  1.0 -0.0889064223
C  C159  1  0.82840000  0.52290000  0.17040000  1.0 -0.1490075396
C  C160  1  0.17160000  0.47710000  0.82960000  1.0 -0.1490075396
C  C161  1  0.62980000  0.54610000  0.10180000  1.0 0.598181776
C  C162  1  0.37020000  0.45390000  0.89820000  1.0 0.598181776
C  C163  1  0.13170000  0.44290000  0.14470000  1.0 0.0904992887
C  C164  1  0.86830000  0.55710000  0.85530000  1.0 0.0904992887
C  C165  1  0.17190000  0.40440000  0.10620000  1.0 -0.1490075396
C  C166  1  0.82810000  0.59560000  0.89380000  1.0 -0.1490075396
C  C167  1  0.25150000  0.44390000  0.08820000  1.0 -0.0710263557
C  C168  1  0.74850000  0.55610000  0.91180000  1.0 -0.0710263557
C  C169  1  0.29370000  0.52060000  0.10900000  1.0 -0.0710263557
C  C170  1  0.70630000  0.47940000  0.89100000  1.0 -0.0710263557
C  C171  1  0.25320000  0.55530000  0.14690000  1.0 -0.0710263557
C  C172  1  0.74680000  0.44470000  0.85310000  1.0 -0.0710263557
C  C173  1  0.17270000  0.51810000  0.16370000  1.0 -0.1490075396
C  C174  1  0.82730000  0.48190000  0.83630000  1.0 -0.1490075396
C  C175  1  0.37560000  0.55780000  0.08880000  1.0 0.598181776
C  C176  1  0.62440000  0.44220000  0.91120000  1.0 0.598181776
O  O1  1  0.56090000  0.62990000  0.00339000  1.0 -0.5709688496
O  O2  1  0.43910000  0.37010000  0.99661000  1.0 -0.5709688496
O  O3  1  0.49810000  0.72560000  0.02120000  1.0 -0.5003602666
O  O4  1  0.50190000  0.27440000  0.97880000  1.0 -0.5003602666
O  O5  1  0.98020000  0.12110000  0.64720000  1.0 -0.511167888
O  O6  1  0.01980000  0.87890000  0.35280000  1.0 -0.511167888
O  O7  1  0.96070000  0.07440000  0.56840000  1.0 -0.5756179374
O  O8  1  0.03930000  0.92560000  0.43160000  1.0 -0.5756179374
O  O9  1  0.16060000  0.07540000  0.59880000  1.0 -0.549030332
O  O10  1  0.83940000  0.92460000  0.40120000  1.0 -0.549030332
O  O11  1  0.10840000  0.97360000  0.54000000  1.0 -0.549030332
O  O12  1  0.89160000  0.02640000  0.46000000  1.0 -0.549030332
O  O13  1  0.23010000  0.25390000  0.58730000  1.0 -0.5003602666
O  O14  1  0.76990000  0.74610000  0.41270000  1.0 -0.5003602666
O  O15  1  0.13500000  0.27020000  0.64460000  1.0 -0.5199049693
O  O16  1  0.86500000  0.72980000  0.35540000  1.0 -0.5199049693
O  O17  1  0.41120000  0.63970000  0.63140000  1.0 -0.1295828652
O  O18  1  0.58880000  0.36030000  0.36860000  1.0 -0.1295828652
O  O19  1  0.53730000  0.81100000  0.77800000  1.0 -0.1707349253
O  O20  1  0.46270000  0.18900000  0.22200000  1.0 -0.1707349253
O  O21  1  0.33670000  0.78210000  0.67690000  1.0 -0.1707349253
O  O22  1  0.66330000  0.21790000  0.32310000  1.0 -0.1707349253
O  O23  1  0.64520000  0.79780000  0.67980000  1.0 -0.1490075396
O  O24  1  0.35480000  0.20220000  0.32020000  1.0 -0.1490075396
O  O25  1  0.08890000  0.11960000  0.49749000  1.0 -0.5988392812
O  O26  1  0.91110000  0.88040000  0.50251000  1.0 -0.5988392812
O  O27  1  0.04550000  0.22400000  0.52560000  1.0 -0.5003602666
O  O28  1  0.95450000  0.77600000  0.47440000  1.0 -0.511167888
O  O29  1  0.39590000  0.52710000  0.04800000  1.0 -0.5709688496
O  O30  1  0.60410000  0.47290000  0.95200000  1.0 -0.5709688496
O  O31  1  0.41660000  0.61990000  0.11240000  1.0 -0.5199049693
O  O32  1  0.58340000  0.38010000  0.88760000  1.0 -0.5199049693
O  O33  1  0.57780000  0.78270000  0.14610000  1.0 -0.5199049693
O  O34  1  0.42220000  0.21730000  0.85390000  1.0 -0.5199049693
O  O35  1  0.67330000  0.77980000  0.08680000  1.0 -0.511167888
O  O36  1  0.32670000  0.22020000  0.91320000  1.0 -0.511167888
O  O37  1  0.58490000  0.50580000  0.06610000  1.0 -0.5563249868
O  O38  1  0.41510000  0.49420000  0.93390000  1.0 -0.5563249868
O  O39  1  0.63180000  0.61360000  0.11980000  1.0 -0.5199049693
O  O40  1  0.36820000  0.38640000  0.88020000  1.0 -0.5199049693
O  O41  1  0.79770000  0.31670000  0.21140000  1.0 -0.198742978
O  O42  1  0.20230000  0.68330000  0.78860000  1.0 -0.2063772958
O  O43  1  0.09730000  0.30500000  0.18280000  1.0 -0.1780062374
O  O44  1  0.90270000  0.69500000  0.81720000  1.0 -0.1780062374
O  O45  1  0.84360000  0.16850000  0.14800000  1.0 -0.1615013798
O  O46  1  0.15640000  0.83150000  0.85200000  1.0 -0.1615013798
O  O47  1  0.00940000  0.31500000  0.29210000  1.0 -0.1707349253
O  O48  1  0.99060000  0.68500000  0.70790000  1.0 -0.1707349253
