# DDEC6 charges by PACMAN v1.1 (https://github.com/mtap-research/PACMAN-charge/)
data_WUZGAB_ASR_pacman
_symmetry_space_group_name_H-M   'P 1'
_cell_length_a   15.63100000
_cell_length_b   18.45600000
_cell_length_c   27.51700000
_cell_angle_alpha   99.83600000
_cell_angle_beta   89.99400000
_cell_angle_gamma   103.73600000
_symmetry_Int_Tables_number   1
_chemical_formula_structural   Cd3H60(C11O3)8
_chemical_formula_sum   'Cd6 H120 C176 O48'
_cell_volume   7591.08837033
_cell_formula_units_Z   2
loop_
 _symmetry_equiv_pos_site_id
 _symmetry_equiv_pos_as_xyz
  1  'x, y, z'
loop_
 _atom_site_type_symbol
 _atom_site_label
 _atom_site_symmetry_multiplicity
 _atom_site_fract_x
 _atom_site_fract_y
 _atom_site_fract_z
 _atom_site_occupancy
 _atom_site_charge
Cd  Cd1  1  0.41016000  0.33511000  0.41366000  1.0 1.0124952546
Cd  Cd2  1  0.58984000  0.66489000  0.58634000  1.0 1.0124952546
Cd  Cd3  1  0.95069000  0.82457000  0.91203000  1.0 1.019632434
Cd  Cd4  1  0.04931000  0.17543000  0.08797000  1.0 1.019632434
Cd  Cd5  1  0.50000000  0.50000000  0.50000000  1.0 1.1170330992
Cd  Cd6  1  0.00000000  0.00000000  0.00000000  1.0 1.1518323174
H  H1  1  0.29710000  0.12010000  0.28530000  1.0 0.1288596691
H  H2  1  0.70290000  0.87990000  0.71470000  1.0 0.1288596691
H  H3  1  0.20930000  0.00060000  0.25300000  1.0 0.1123659132
H  H4  1  0.79070000  0.99940000  0.74700000  1.0 0.1123659132
H  H5  1  0.07630000  0.99640000  0.37730000  1.0 0.1212919821
H  H6  1  0.92370000  0.00360000  0.62270000  1.0 0.1212919821
H  H7  1  0.16060000  0.11880000  0.41200000  1.0 0.1288596691
H  H8  1  0.83940000  0.88120000  0.58800000  1.0 0.1288596691
H  H9  1  0.07180000  0.93310000  0.22410000  1.0 0.1212919821
H  H10  1  0.92820000  0.06690000  0.77590000  1.0 0.1212919821
H  H11  1  0.93770000  0.90440000  0.16900000  1.0 0.1288596691
H  H12  1  0.06230000  0.09560000  0.83100000  1.0 0.1288596691
H  H13  1  0.92110000  0.90080000  0.08500000  1.0 0.1212919821
H  H14  1  0.07890000  0.09920000  0.91500000  1.0 0.1212919821
H  H15  1  0.03180000  0.72360000  0.05580000  1.0 0.1288596691
H  H16  1  0.96820000  0.27640000  0.94420000  1.0 0.1288596691
H  H17  1  0.04820000  0.72440000  0.13940000  1.0 0.1212919821
H  H18  1  0.95180000  0.27560000  0.86060000  1.0 0.1212919821
H  H19  1  0.97320000  0.54040000  0.38520000  1.0 0.1212919821
H  H20  1  0.02680000  0.45960000  0.61480000  1.0 0.1212919821
H  H21  1  0.25220000  0.70340000  0.27080000  1.0 0.1212919821
H  H22  1  0.74780000  0.29660000  0.72920000  1.0 0.1212919821
H  H23  1  0.15460000  0.67690000  0.24940000  1.0 0.1288596691
H  H24  1  0.84540000  0.32310000  0.75060000  1.0 0.1288596691
H  H25  1  0.19190000  0.62670000  0.28060000  1.0 0.1123659132
H  H26  1  0.80810000  0.37330000  0.71940000  1.0 0.1123659132
H  H27  1  0.74440000  0.72980000  0.34760000  1.0 0.1288596691
H  H28  1  0.25560000  0.27020000  0.65240000  1.0 0.1288596691
H  H29  1  0.83140000  0.78240000  0.37420000  1.0 0.1212919821
H  H30  1  0.16860000  0.21760000  0.62580000  1.0 0.1212919821
H  H31  1  0.79800000  0.69970000  0.38460000  1.0 0.1123659132
H  H32  1  0.20200000  0.30030000  0.61540000  1.0 0.1123659132
H  H33  1  0.85540000  0.62620000  0.17830000  1.0 0.1288596691
H  H34  1  0.14460000  0.37380000  0.82170000  1.0 0.1288596691
H  H35  1  0.86720000  0.71380000  0.18220000  1.0 0.1212919821
H  H36  1  0.13280000  0.28620000  0.81780000  1.0 0.1123659132
H  H37  1  0.83080000  0.67430000  0.22660000  1.0 0.1288596691
H  H38  1  0.16920000  0.32570000  0.77340000  1.0 0.1212919821
H  H39  1  0.77330000  0.54780000  0.29360000  1.0 0.1212919821
H  H40  1  0.22670000  0.45220000  0.70640000  1.0 0.1212919821
H  H41  1  0.63720000  0.46740000  0.30810000  1.0 0.1288596691
H  H42  1  0.36280000  0.53260000  0.69190000  1.0 0.1288596691
H  H43  1  0.69810000  0.50090000  0.45040000  1.0 0.138479515
H  H44  1  0.30190000  0.49910000  0.54960000  1.0 0.138479515
H  H45  1  0.83520000  0.57240000  0.43850000  1.0 0.1288596691
H  H46  1  0.16480000  0.42760000  0.56150000  1.0 0.1288596691
H  H47  1  0.08700000  0.47470000  0.33980000  1.0 0.1288596691
H  H48  1  0.91300000  0.52530000  0.66020000  1.0 0.1288596691
H  H49  1  0.20050000  0.42590000  0.36580000  1.0 0.138479515
H  H50  1  0.79950000  0.57410000  0.63420000  1.0 0.138479515
H  H51  1  0.33200000  0.63040000  0.43600000  1.0 0.1212919821
H  H52  1  0.66800000  0.36960000  0.56400000  1.0 0.1212919821
H  H53  1  0.22320000  0.68510000  0.40750000  1.0 0.1212919821
H  H54  1  0.77680000  0.31490000  0.59250000  1.0 0.1212919821
H  H55  1  0.51310000  0.22050000  0.54470000  1.0 0.1288596691
H  H56  1  0.48690000  0.77950000  0.45530000  1.0 0.1288596691
H  H57  1  0.55300000  0.22270000  0.62530000  1.0 0.1212919821
H  H58  1  0.44700000  0.77730000  0.37470000  1.0 0.1212919821
H  H59  1  0.47040000  0.40890000  0.67090000  1.0 0.1288596691
H  H60  1  0.52960000  0.59110000  0.32910000  1.0 0.1288596691
H  H61  1  0.42750000  0.41200000  0.59290000  1.0 0.1123659132
H  H62  1  0.57250000  0.58800000  0.40710000  1.0 0.1123659132
H  H63  1  0.61170000  0.42780000  0.71930000  1.0 0.1288596691
H  H64  1  0.38830000  0.57220000  0.28070000  1.0 0.1288596691
H  H65  1  0.76480000  0.36030000  0.89370000  1.0 0.138479515
H  H66  1  0.23520000  0.63970000  0.10630000  1.0 0.138479515
H  H67  1  0.77550000  0.38620000  0.84220000  1.0 0.1212919821
H  H68  1  0.22450000  0.61380000  0.15780000  1.0 0.1212919821
H  H69  1  0.76600000  0.30090000  0.84580000  1.0 0.1288596691
H  H70  1  0.23400000  0.69910000  0.15420000  1.0 0.1288596691
H  H71  1  0.37490000  0.13490000  0.67210000  1.0 0.138479515
H  H72  1  0.62510000  0.86510000  0.32790000  1.0 0.138479515
H  H73  1  0.38960000  0.22310000  0.68560000  1.0 0.1123659132
H  H74  1  0.61040000  0.77690000  0.31440000  1.0 0.1123659132
H  H75  1  0.36400000  0.17300000  0.72650000  1.0 0.1288596691
H  H76  1  0.63600000  0.82700000  0.27350000  1.0 0.1288596691
H  H77  1  0.63350000  0.46960000  0.87170000  1.0 0.1212919821
H  H78  1  0.36650000  0.53040000  0.12830000  1.0 0.1212919821
H  H79  1  0.71350000  0.59210000  0.91010000  1.0 0.1212919821
H  H80  1  0.28650000  0.40790000  0.08990000  1.0 0.1288596691
H  H81  1  0.85420000  0.60730000  0.78580000  1.0 0.1288596691
H  H82  1  0.14580000  0.39270000  0.21420000  1.0 0.1288596691
H  H83  1  0.77240000  0.48630000  0.74850000  1.0 0.1212919821
H  H84  1  0.22760000  0.51370000  0.25150000  1.0 0.1212919821
H  H85  1  0.50740000  0.01230000  0.85470000  1.0 0.1212919821
H  H86  1  0.49260000  0.98770000  0.14530000  1.0 0.1212919821
H  H87  1  0.35130000  0.28680000  0.84410000  1.0 0.1212919821
H  H88  1  0.64870000  0.71320000  0.15590000  1.0 0.1212919821
H  H89  1  0.45440000  0.30500000  0.84240000  1.0 0.1123659132
H  H90  1  0.54560000  0.69500000  0.15760000  1.0 0.1123659132
H  H91  1  0.40640000  0.26170000  0.88290000  1.0 0.1212919821
H  H92  1  0.59360000  0.73830000  0.11710000  1.0 0.1212919821
H  H93  1  0.77470000  0.15440000  0.73530000  1.0 0.1212919821
H  H94  1  0.22530000  0.84560000  0.26470000  1.0 0.1212919821
H  H95  1  0.68200000  0.15930000  0.71650000  1.0 0.1212919821
H  H96  1  0.31800000  0.84070000  0.28350000  1.0 0.1288596691
H  H97  1  0.69090000  0.09060000  0.74100000  1.0 0.1123659132
H  H98  1  0.30910000  0.90940000  0.25900000  1.0 0.1123659132
H  H99  1  0.34970000  0.95720000  0.81080000  1.0 0.1288596691
H  H100  1  0.65030000  0.04280000  0.18920000  1.0 0.1288596691
H  H101  1  0.20610000  0.89890000  0.83150000  1.0 0.1288596691
H  H102  1  0.79390000  0.10110000  0.16850000  1.0 0.1288596691
H  H103  1  0.21670000  0.07540000  0.93910000  1.0 0.1288596691
H  H104  1  0.78330000  0.92460000  0.06090000  1.0 0.1288596691
H  H105  1  0.34990000  0.14000000  0.91070000  1.0 0.1288596691
H  H106  1  0.65010000  0.86000000  0.08930000  1.0 0.1212919821
H  H107  1  0.76320000  0.15170000  0.86650000  1.0 0.1212919821
H  H108  1  0.23680000  0.84830000  0.13350000  1.0 0.1212919821
H  H109  1  0.86600000  0.09760000  0.89860000  1.0 0.1212919821
H  H110  1  0.13400000  0.90240000  0.10140000  1.0 0.1212919821
H  H111  1  0.72360000  0.89030000  0.84450000  1.0 0.138479515
H  H112  1  0.27640000  0.10970000  0.15550000  1.0 0.138479515
H  H113  1  0.61540000  0.94420000  0.81450000  1.0 0.1212919821
H  H114  1  0.38460000  0.05580000  0.18550000  1.0 0.1212919821
H  H115  1  0.98660000  0.80100000  0.40600000  1.0 0.1123659132
H  H116  1  0.01340000  0.19900000  0.59400000  1.0 0.1123659132
H  H117  1  0.98410000  0.88580000  0.40740000  1.0 0.1123659132
H  H118  1  0.01590000  0.11420000  0.59260000  1.0 0.1212919821
H  H119  1  0.05270000  0.86590000  0.44130000  1.0 0.1288596691
H  H120  1  0.94730000  0.13410000  0.55870000  1.0 0.1288596691
C  C1  1  0.29660000  0.20530000  0.37780000  1.0 0.5262768021
C  C2  1  0.70340000  0.79470000  0.62220000  1.0 0.5247463933
C  C3  1  0.24150000  0.12790000  0.35250000  1.0 0.023146098
C  C4  1  0.75850000  0.87210000  0.64750000  1.0 0.023146098
C  C5  1  0.25440000  0.09500000  0.30410000  1.0 -0.1064651893
C  C6  1  0.74560000  0.90500000  0.69590000  1.0 -0.1064651893
C  C7  1  0.20100000  0.02310000  0.28500000  1.0 -0.1307391176
C  C8  1  0.79900000  0.97690000  0.71500000  1.0 -0.1307391176
C  C9  1  0.13460000  0.98330000  0.31270000  1.0 0.0739537342
C  C10  1  0.86540000  0.01670000  0.68730000  1.0 0.0739537342
C  C11  1  0.12110000  0.02070000  0.35930000  1.0 -0.1215579523
C  C12  1  0.87890000  0.97930000  0.64070000  1.0 -0.1215579523
C  C13  1  0.17210000  0.09450000  0.38120000  1.0 -0.1215579523
C  C14  1  0.82790000  0.90550000  0.61880000  1.0 -0.1215579523
C  C15  1  0.08500000  0.90940000  0.29180000  1.0 -0.0388006384
C  C16  1  0.91500000  0.09060000  0.70820000  1.0 -0.0388006384
C  C17  1  0.05930000  0.89290000  0.24140000  1.0 -0.1786741117
C  C18  1  0.94070000  0.10710000  0.75860000  1.0 -0.1786741117
C  C19  1  0.01710000  0.82270000  0.21500000  1.0 -0.0388006384
C  C20  1  0.98290000  0.17730000  0.78500000  1.0 -0.0388006384
C  C21  1  0.99980000  0.75960000  0.24310000  1.0 0.2131132236
C  C22  1  0.00020000  0.24040000  0.75690000  1.0 0.2131132236
C  C23  1  0.02490000  0.77420000  0.29410000  1.0 -0.0968248197
C  C24  1  0.97510000  0.22580000  0.70590000  1.0 -0.0968248197
C  C25  1  0.06920000  0.84720000  0.31680000  1.0 0.1641271314
C  C26  1  0.93080000  0.15280000  0.68320000  1.0 0.1641271314
C  C27  1  0.99590000  0.81440000  0.16500000  1.0 0.0872542027
C  C28  1  0.00410000  0.18560000  0.83500000  1.0 0.0872542027
C  C29  1  0.95680000  0.86810000  0.14690000  1.0 -0.1425903799
C  C30  1  0.04320000  0.13190000  0.85310000  1.0 -0.1425903799
C  C31  1  0.94730000  0.86610000  0.09620000  1.0 -0.0712956205
C  C32  1  0.05270000  0.13390000  0.90380000  1.0 -0.0712956205
C  C33  1  0.97520000  0.81550000  0.06350000  1.0 -0.0388006384
C  C34  1  0.02480000  0.18450000  0.93650000  1.0 -0.0388006384
C  C35  1  0.01370000  0.75950000  0.07880000  1.0 -0.0928795883
C  C36  1  0.98630000  0.24050000  0.92120000  1.0 -0.0928795883
C  C37  1  0.02320000  0.76030000  0.12890000  1.0 -0.1496398781
C  C38  1  0.97680000  0.23970000  0.87110000  1.0 -0.1496398781
C  C39  1  0.97280000  0.81840000  0.01060000  1.0 0.583800917
C  C40  1  0.02720000  0.18160000  0.98940000  1.0 0.583800917
C  C41  1  0.00910000  0.70660000  0.31840000  1.0 -0.0968248197
C  C42  1  0.99090000  0.29340000  0.68160000  1.0 -0.0968248197
C  C43  1  0.92530000  0.67280000  0.33120000  1.0 0.1505162767
C  C44  1  0.07470000  0.32720000  0.66880000  1.0 0.1505162767
C  C45  1  0.90940000  0.60980000  0.35410000  1.0 -0.0302168499
C  C46  1  0.09060000  0.39020000  0.64590000  1.0 -0.0302168499
C  C47  1  0.98250000  0.58230000  0.36950000  1.0 -0.2007738822
C  C48  1  0.01750000  0.41770000  0.63050000  1.0 -0.2007738822
C  C49  1  0.06970000  0.62170000  0.35980000  1.0 -0.0302168499
C  C50  1  0.93030000  0.37830000  0.64020000  1.0 -0.0302168499
C  C51  1  0.08070000  0.68150000  0.33333333  1.0 0.1719553298
C  C52  1  0.91930000  0.31850000  0.66666667  1.0 0.1719553298
C  C53  1  0.19320000  0.67770000  0.27680000  1.0 -0.2383101383
C  C54  1  0.80680000  0.32230000  0.72320000  1.0 -0.2383101383
C  C55  1  0.80240000  0.73130000  0.35990000  1.0 -0.2466337332
C  C56  1  0.19760000  0.26870000  0.64010000  1.0 -0.2466337332
C  C57  1  0.87080000  0.67430000  0.20010000  1.0 -0.2326691025
C  C58  1  0.12920000  0.32570000  0.79990000  1.0 -0.2326691025
C  C59  1  0.81860000  0.56670000  0.36580000  1.0 0.0982349913
C  C60  1  0.18140000  0.43330000  0.63420000  1.0 0.0982349913
C  C61  1  0.75970000  0.53690000  0.32480000  1.0 -0.1425903799
C  C62  1  0.24030000  0.46310000  0.67520000  1.0 -0.1425903799
C  C63  1  0.67810000  0.48920000  0.33410000  1.0 -0.0795212007
C  C64  1  0.32190000  0.51080000  0.66590000  1.0 -0.0795212007
C  C65  1  0.65830000  0.47450000  0.38000000  1.0 -0.0388006384
C  C66  1  0.34170000  0.52550000  0.62000000  1.0 -0.0388006384
C  C67  1  0.71440000  0.50790000  0.41870000  1.0 -0.0712956205
C  C68  1  0.28560000  0.49210000  0.58130000  1.0 -0.0712956205
C  C69  1  0.79540000  0.55210000  0.41170000  1.0 -0.1425903799
C  C70  1  0.20460000  0.44790000  0.58830000  1.0 -0.1425903799
C  C71  1  0.57190000  0.42720000  0.38860000  1.0 0.5730310431
C  C72  1  0.42810000  0.57280000  0.61140000  1.0 0.5730310431
C  C73  1  0.14310000  0.58670000  0.37310000  1.0 0.0982349913
C  C74  1  0.85690000  0.41330000  0.62690000  1.0 0.0982349913
C  C75  1  0.13530000  0.50600000  0.35870000  1.0 -0.1591333726
C  C76  1  0.86470000  0.49400000  0.64130000  1.0 -0.1591333726
C  C77  1  0.20390000  0.47750000  0.37440000  1.0 -0.0928795883
C  C78  1  0.79610000  0.52250000  0.62560000  1.0 -0.0928795883
C  C79  1  0.27450000  0.52210000  0.40160000  1.0 -0.011077968
C  C80  1  0.72550000  0.47790000  0.59840000  1.0 -0.011077968
C  C81  1  0.28380000  0.60060000  0.41630000  1.0 -0.0795212007
C  C82  1  0.71620000  0.39940000  0.58370000  1.0 -0.0795212007
C  C83  1  0.21710000  0.63300000  0.40010000  1.0 -0.1496398781
C  C84  1  0.78290000  0.36700000  0.59990000  1.0 -0.1496398781
C  C85  1  0.34340000  0.47910000  0.41840000  1.0 0.5862282565
C  C86  1  0.65660000  0.52090000  0.58160000  1.0 0.5862282565
C  C87  1  0.44880000  0.32740000  0.51060000  1.0 0.556000208
C  C88  1  0.55120000  0.67260000  0.48940000  1.0 0.556000208
C  C89  1  0.46780000  0.31770000  0.55890000  1.0 -0.0618792665
C  C90  1  0.53220000  0.68230000  0.44110000  1.0 -0.0618792665
C  C91  1  0.50470000  0.25900000  0.56950000  1.0 -0.0795212007
C  C92  1  0.49530000  0.74100000  0.43050000  1.0 -0.0795212007
C  C93  1  0.52810000  0.26130000  0.61880000  1.0 -0.1496398781
C  C94  1  0.47190000  0.73870000  0.38120000  1.0 -0.1496398781
C  C95  1  0.51850000  0.31440000  0.65900000  1.0 0.0872542027
C  C96  1  0.48150000  0.68560000  0.34100000  1.0 0.0872542027
C  C97  1  0.47920000  0.37120000  0.64580000  1.0 -0.1496398781
C  C98  1  0.52080000  0.62880000  0.35420000  1.0 -0.1496398781
C  C99  1  0.45380000  0.37390000  0.59890000  1.0 -0.0795212007
C  C100  1  0.54620000  0.62610000  0.40110000  1.0 -0.0795212007
C  C101  1  0.55170000  0.32050000  0.70910000  1.0 -0.0388006384
C  C102  1  0.44830000  0.67950000  0.29090000  1.0 -0.0388006384
C  C103  1  0.53220000  0.25380000  0.73310000  1.0 0.1719553298
C  C104  1  0.46780000  0.74620000  0.26690000  1.0 0.1719553298
C  C105  1  0.56530000  0.26250000  0.77970000  1.0 -0.0968248197
C  C106  1  0.43470000  0.73750000  0.22030000  1.0 -0.0968248197
C  C107  1  0.61620000  0.33120000  0.80710000  1.0 0.184613069
C  C108  1  0.38380000  0.66880000  0.19290000  1.0 0.184613069
C  C109  1  0.63860000  0.39410000  0.78170000  1.0 -0.0388006384
C  C110  1  0.36140000  0.60590000  0.21830000  1.0 -0.0388006384
C  C111  1  0.60130000  0.38540000  0.73450000  1.0 -0.1591333726
C  C112  1  0.39870000  0.61460000  0.26550000  1.0 -0.1591333726
C  C113  1  0.74780000  0.34610000  0.85920000  1.0 -0.2383101383
C  C114  1  0.25220000  0.65390000  0.14080000  1.0 -0.2383101383
C  C115  1  0.39660000  0.17860000  0.69720000  1.0 -0.2181966179
C  C116  1  0.60340000  0.82140000  0.30280000  1.0 -0.2181966179
C  C117  1  0.69210000  0.47030000  0.80610000  1.0 0.0805125287
C  C118  1  0.30790000  0.52970000  0.19390000  1.0 0.0805125287
C  C119  1  0.67610000  0.49850000  0.85470000  1.0 -0.1591333726
C  C120  1  0.32390000  0.50150000  0.14530000  1.0 -0.1591333726
C  C121  1  0.72490000  0.57150000  0.87820000  1.0 -0.0795212007
C  C122  1  0.27510000  0.42850000  0.12180000  1.0 -0.0795212007
C  C123  1  0.79420000  0.61300000  0.85000000  1.0 -0.019308182
C  C124  1  0.20580000  0.38700000  0.15000000  1.0 -0.019308182
C  C125  1  0.80980000  0.58070000  0.80300000  1.0 -0.0968248197
C  C126  1  0.19020000  0.41930000  0.19700000  1.0 -0.0968248197
C  C127  1  0.76000000  0.50800000  0.78000000  1.0 -0.1591333726
C  C128  1  0.24000000  0.49200000  0.22000000  1.0 -0.1591333726
C  C129  1  0.85170000  0.68720000  0.87300000  1.0 0.5389134637
C  C130  1  0.14830000  0.31280000  0.12700000  1.0 0.5389134637
C  C131  1  0.61470000  0.15440000  0.80770000  1.0 0.1505162767
C  C132  1  0.38530000  0.84560000  0.19230000  1.0 0.1505162767
C  C133  1  0.60360000  0.08850000  0.82680000  1.0 -0.019308182
C  C134  1  0.39640000  0.91150000  0.17320000  1.0 -0.019308182
C  C135  1  0.51760000  0.05710000  0.84210000  1.0 -0.2007738822
C  C136  1  0.48240000  0.94290000  0.15790000  1.0 -0.2007738822
C  C137  1  0.44930000  0.09150000  0.83850000  1.0 -0.019308182
C  C138  1  0.55070000  0.90850000  0.16150000  1.0 -0.019308182
C  C139  1  0.46770000  0.16200000  0.82230000  1.0 0.1505162767
C  C140  1  0.53230000  0.83800000  0.17770000  1.0 0.1505162767
C  C141  1  0.54960000  0.19050000  0.80450000  1.0 -0.0795212007
C  C142  1  0.45040000  0.80950000  0.19550000  1.0 -0.0795212007
C  C143  1  0.40270000  0.26870000  0.84930000  1.0 -0.2383101383
C  C144  1  0.59730000  0.73130000  0.15070000  1.0 -0.2383101383
C  C145  1  0.71290000  0.14390000  0.74150000  1.0 -0.2326691025
C  C146  1  0.28710000  0.85610000  0.25850000  1.0 -0.2326691025
C  C147  1  0.35990000  0.05970000  0.85550000  1.0 0.0982349913
C  C148  1  0.64010000  0.94030000  0.14450000  1.0 0.0982349913
C  C149  1  0.32030000  0.98300000  0.83460000  1.0 -0.1496398781
C  C150  1  0.67970000  0.01700000  0.16540000  1.0 -0.1496398781
C  C151  1  0.23710000  0.94520000  0.84920000  1.0 -0.0712956205
C  C152  1  0.76290000  0.05480000  0.15080000  1.0 -0.0712956205
C  C153  1  0.20370000  0.98030000  0.89130000  1.0 -0.0618792665
C  C154  1  0.79630000  0.01970000  0.10870000  1.0 -0.0618792665
C  C155  1  0.24240000  0.05150000  0.91250000  1.0 -0.0712956205
C  C156  1  0.75760000  0.94850000  0.08750000  1.0 -0.0712956205
C  C157  1  0.32290000  0.09130000  0.89470000  1.0 -0.1425903799
C  C158  1  0.67710000  0.90870000  0.10530000  1.0 -0.1425903799
C  C159  1  0.11830000  0.94330000  0.90760000  1.0 0.6002830616
C  C160  1  0.88170000  0.05670000  0.09240000  1.0 0.6002830616
C  C161  1  0.68080000  0.05540000  0.83800000  1.0 0.0872542027
C  C162  1  0.31920000  0.94460000  0.16200000  1.0 0.0872542027
C  C163  1  0.75330000  0.09930000  0.86240000  1.0 -0.1307391176
C  C164  1  0.24670000  0.90070000  0.13760000  1.0 -0.1307391176
C  C165  1  0.81510000  0.06660000  0.88190000  1.0 -0.0795212007
C  C166  1  0.18490000  0.93340000  0.11810000  1.0 -0.0795212007
C  C167  1  0.80170000  0.99390000  0.87700000  1.0 -0.011077968
C  C168  1  0.19830000  0.00610000  0.12300000  1.0 -0.011077968
C  C169  1  0.72930000  0.94240000  0.84980000  1.0 -0.0928795883
C  C170  1  0.27070000  0.05760000  0.15020000  1.0 -0.0928795883
C  C171  1  0.66640000  0.97500000  0.83120000  1.0 -0.1496398781
C  C172  1  0.33360000  0.02500000  0.16880000  1.0 -0.1496398781
C  C173  1  0.86660000  0.95480000  0.90000000  1.0 0.6058132699
C  C174  1  0.13340000  0.04520000  0.10000000  1.0 0.6058132699
C  C175  1  0.02170000  0.85210000  0.40970000  1.0 -0.27391992
C  C176  1  0.97830000  0.14790000  0.59030000  1.0 -0.27391992
O  O1  1  0.36780000  0.22980000  0.35440000  1.0 -0.5276677975
O  O2  1  0.63220000  0.77020000  0.64560000  1.0 -0.5276677975
O  O3  1  0.27180000  0.24390000  0.41380000  1.0 -0.5086647023
O  O4  1  0.72820000  0.75610000  0.58620000  1.0 -0.5086647023
O  O5  1  0.93880000  0.87030000  0.99580000  1.0 -0.6225592145
O  O6  1  0.06120000  0.12970000  0.00420000  1.0 -0.6225592145
O  O7  1  0.00090000  0.77240000  0.97820000  1.0 -0.5086647023
O  O8  1  0.99910000  0.22760000  0.02180000  1.0 -0.5086647023
O  O9  1  0.52540000  0.37480000  0.35220000  1.0 -0.521649726
O  O10  1  0.47460000  0.62520000  0.64780000  1.0 -0.521649726
O  O11  1  0.54320000  0.42730000  0.43340000  1.0 -0.6015371927
O  O12  1  0.45680000  0.57270000  0.56660000  1.0 -0.6015371927
O  O13  1  0.34270000  0.41820000  0.39810000  1.0 -0.449925045
O  O14  1  0.65730000  0.58180000  0.60190000  1.0 -0.449925045
O  O15  1  0.39050000  0.52400000  0.46020000  1.0 -0.6438536891
O  O16  1  0.60950000  0.47600000  0.53980000  1.0 -0.6438536891
O  O17  1  0.96130000  0.68750000  0.22040000  1.0 -0.1307391176
O  O18  1  0.03870000  0.31250000  0.77960000  1.0 -0.1307391176
O  O19  1  0.09060000  0.85810000  0.36720000  1.0 -0.1496398781
O  O20  1  0.90940000  0.14190000  0.63280000  1.0 -0.1496398781
O  O21  1  0.16400000  0.71740000  0.32160000  1.0 -0.1591333726
O  O22  1  0.83600000  0.28260000  0.67840000  1.0 -0.1591333726
O  O23  1  0.85550000  0.70250000  0.31760000  1.0 -0.2007738822
O  O24  1  0.14450000  0.29750000  0.68240000  1.0 -0.2007738822
O  O25  1  0.46010000  0.27610000  0.47370000  1.0 -0.5086647023
O  O26  1  0.53990000  0.72390000  0.52630000  1.0 -0.5086647023
O  O27  1  0.41500000  0.38010000  0.50060000  1.0 -0.5808805176
O  O28  1  0.58500000  0.61990000  0.49940000  1.0 -0.5808805176
O  O29  1  0.92010000  0.71980000  0.85230000  1.0 -0.521649726
O  O30  1  0.07990000  0.28020000  0.14770000  1.0 -0.521649726
O  O31  1  0.82280000  0.72210000  0.91250000  1.0 -0.5276677975
O  O32  1  0.17720000  0.27790000  0.08750000  1.0 -0.521649726
O  O33  1  0.91170000  0.99670000  0.93570000  1.0 -0.5584551343
O  O34  1  0.08830000  0.00330000  0.06430000  1.0 -0.5584551343
O  O35  1  0.86700000  0.88720000  0.88110000  1.0 -0.5276677975
O  O36  1  0.13300000  0.11280000  0.11890000  1.0 -0.5276677975
O  O37  1  0.09950000  0.96910000  0.95230000  1.0 -0.6015371927
O  O38  1  0.90050000  0.03090000  0.04770000  1.0 -0.6015371927
O  O39  1  0.07730000  0.87880000  0.88440000  1.0 -0.521649726
O  O40  1  0.92270000  0.12120000  0.11560000  1.0 -0.521649726
O  O41  1  0.48630000  0.18550000  0.70810000  1.0 -0.1215579523
O  O42  1  0.51370000  0.81450000  0.29190000  1.0 -0.1307391176
O  O43  1  0.64900000  0.33170000  0.85280000  1.0 -0.1215579523
O  O44  1  0.35100000  0.66830000  0.14720000  1.0 -0.1215579523
O  O45  1  0.39650000  0.19490000  0.81560000  1.0 -0.206918838
O  O46  1  0.60350000  0.80510000  0.18440000  1.0 -0.206918838
O  O47  1  0.69970000  0.18580000  0.78990000  1.0 -0.2326691025
O  O48  1  0.30030000  0.81420000  0.21010000  1.0 -0.2326691025
