# DDEC6 charges by PACMAN v1.1 (https://github.com/mtap-research/PACMAN-charge/)
data_WUZRER_ASR_pacman
_symmetry_space_group_name_H-M   'P 1'
_cell_length_a   11.58800000
_cell_length_b   11.99500000
_cell_length_c   20.43100000
_cell_angle_alpha   80.65000000
_cell_angle_beta   89.97000000
_cell_angle_gamma   89.99000000
_symmetry_Int_Tables_number   1
_chemical_formula_structural   ZnH20C26(NO)4
_chemical_formula_sum   'Zn4 H80 C104 N16 O16'
_cell_volume   2802.13935763
_cell_formula_units_Z   4
loop_
 _symmetry_equiv_pos_site_id
 _symmetry_equiv_pos_as_xyz
  1  'x, y, z'
loop_
 _atom_site_type_symbol
 _atom_site_label
 _atom_site_symmetry_multiplicity
 _atom_site_fract_x
 _atom_site_fract_y
 _atom_site_fract_z
 _atom_site_occupancy
 _atom_site_charge
Zn  Zn1  1  0.51241000  0.04311000  0.18440000  1.0 0.8030152615
Zn  Zn2  1  0.48759000  0.95689000  0.81560000  1.0 0.8030152615
Zn  Zn3  1  0.01244000  0.45688000  0.68441000  1.0 0.805855542
Zn  Zn4  1  0.98756000  0.54312000  0.31559000  1.0 0.805855542
H  H1  1  0.13400000  0.01830000  0.15780000  1.0 0.14002073
H  H2  1  0.94960000  0.98080000  0.12460000  1.0 0.118852669
H  H3  1  0.20960000  0.05130000  0.96890000  1.0 0.118852669
H  H4  1  0.50970000  0.91420000  0.38530000  1.0 0.118852669
H  H5  1  0.50730000  0.78090000  0.48130000  1.0 0.1114293649
H  H6  1  0.50720000  0.74960000  0.59460000  1.0 0.1114293649
H  H7  1  0.49650000  0.36730000  0.18830000  1.0 0.1610411588
H  H8  1  0.42350000  0.28200000  0.15490000  1.0 0.1715244361
H  H9  1  0.47400000  0.39100000  0.11170000  1.0 0.1507512747
H  H10  1  0.82900000  0.24660000  0.08760000  1.0 0.1290182393
H  H11  1  0.75520000  0.06950000  0.14000000  1.0 0.118852669
H  H12  1  0.71340000  0.38010000  0.99460000  1.0 0.14002073
H  H13  1  0.72940000  0.56480000  0.94470000  1.0 0.118852669
H  H14  1  0.70520000  0.72060000  0.00120000  1.0 0.1290182393
H  H15  1  0.65360000  0.51420000  0.16370000  1.0 0.14002073
H  H16  1  0.50030000  0.86750000  0.02340000  1.0 0.1715244361
H  H17  1  0.40850000  0.83080000  0.07910000  1.0 0.1715244361
H  H18  1  0.48020000  0.73900000  0.05040000  1.0 0.1507512747
H  H19  1  0.72130000  0.90030000  0.24030000  1.0 0.1290182393
H  H20  1  0.79940000  0.72760000  0.20270000  1.0 0.14002073
H  H21  1  0.86600000  0.98170000  0.84220000  1.0 0.14002073
H  H22  1  0.05040000  0.01920000  0.87540000  1.0 0.118852669
H  H23  1  0.79040000  0.94870000  0.03110000  1.0 0.118852669
H  H24  1  0.49030000  0.08580000  0.61470000  1.0 0.118852669
H  H25  1  0.49270000  0.21910000  0.51870000  1.0 0.1114293649
H  H26  1  0.49280000  0.25040000  0.40540000  1.0 0.1114293649
H  H27  1  0.50350000  0.63270000  0.81170000  1.0 0.1610411588
H  H28  1  0.57650000  0.71800000  0.84510000  1.0 0.1715244361
H  H29  1  0.52600000  0.60900000  0.88830000  1.0 0.1507512747
H  H30  1  0.17100000  0.75340000  0.91240000  1.0 0.1290182393
H  H31  1  0.24480000  0.93050000  0.86000000  1.0 0.118852669
H  H32  1  0.28660000  0.61990000  0.00540000  1.0 0.14002073
H  H33  1  0.27060000  0.43520000  0.05530000  1.0 0.118852669
H  H34  1  0.29480000  0.27940000  0.99880000  1.0 0.1290182393
H  H35  1  0.34640000  0.48580000  0.83630000  1.0 0.14002073
H  H36  1  0.49970000  0.13250000  0.97660000  1.0 0.1715244361
H  H37  1  0.59150000  0.16920000  0.92090000  1.0 0.1715244361
H  H38  1  0.51980000  0.26100000  0.94960000  1.0 0.1507512747
H  H39  1  0.27870000  0.09970000  0.75970000  1.0 0.1290182393
H  H40  1  0.20060000  0.27240000  0.79730000  1.0 0.14002073
H  H41  1  0.01050000  0.59250000  0.87910000  1.0 0.1114293649
H  H42  1  0.99290000  0.25230000  0.91480000  1.0 0.118852669
H  H43  1  0.99240000  0.27480000  0.02530000  1.0 0.1026856541
H  H44  1  0.63720000  0.48170000  0.65750000  1.0 0.1290182393
H  H45  1  0.45090000  0.51820000  0.62300000  1.0 0.118852669
H  H46  1  0.70790000  0.44890000  0.47120000  1.0 0.1114293649
H  H47  1  0.00010000  0.63310000  0.53360000  1.0 0.1798720281
H  H48  1  0.97960000  0.76140000  0.53650000  1.0 0.1610411588
H  H49  1  0.90920000  0.66900000  0.58310000  1.0 0.1715244361
H  H50  1  0.21840000  0.58880000  0.74520000  1.0 0.14002073
H  H51  1  0.29650000  0.77080000  0.70070000  1.0 0.1507512747
H  H52  1  0.15270000  0.96660000  0.66320000  1.0 0.1507512747
H  H53  1  0.21550000  0.12590000  0.48780000  1.0 0.1290182393
H  H54  1  0.22990000  0.95520000  0.44490000  1.0 0.118852669
H  H55  1  0.20130000  0.78370000  0.50940000  1.0 0.1507512747
H  H56  1  0.97790000  0.11990000  0.61590000  1.0 0.14002073
H  H57  1  0.92390000  0.21830000  0.64780000  1.0 0.1715244361
H  H58  1  0.98980000  0.11980000  0.69240000  1.0 0.1610411588
H  H59  1  0.32950000  0.26030000  0.58920000  1.0 0.1290182393
H  H60  1  0.26080000  0.42570000  0.63840000  1.0 0.1026856541
H  H61  1  0.98950000  0.40750000  0.12090000  1.0 0.1114293649
H  H62  1  0.00710000  0.74770000  0.08520000  1.0 0.118852669
H  H63  1  0.00760000  0.72520000  0.97470000  1.0 0.1026856541
H  H64  1  0.36280000  0.51830000  0.34250000  1.0 0.1290182393
H  H65  1  0.54910000  0.48180000  0.37700000  1.0 0.118852669
H  H66  1  0.29210000  0.55110000  0.52880000  1.0 0.1114293649
H  H67  1  0.99990000  0.36690000  0.46640000  1.0 0.1798720281
H  H68  1  0.02040000  0.23860000  0.46350000  1.0 0.1610411588
H  H69  1  0.09080000  0.33100000  0.41690000  1.0 0.1715244361
H  H70  1  0.78160000  0.41120000  0.25480000  1.0 0.14002073
H  H71  1  0.70350000  0.22920000  0.29930000  1.0 0.1507512747
H  H72  1  0.84730000  0.03340000  0.33680000  1.0 0.14002073
H  H73  1  0.78450000  0.87410000  0.51220000  1.0 0.1290182393
H  H74  1  0.77010000  0.04480000  0.55510000  1.0 0.118852669
H  H75  1  0.79870000  0.21630000  0.49060000  1.0 0.1507512747
H  H76  1  0.02210000  0.88010000  0.38410000  1.0 0.14002073
H  H77  1  0.07610000  0.78170000  0.35220000  1.0 0.1715244361
H  H78  1  0.01020000  0.88020000  0.30760000  1.0 0.1610411588
H  H79  1  0.67050000  0.73970000  0.41080000  1.0 0.1290182393
H  H80  1  0.73920000  0.57430000  0.36160000  1.0 0.1026856541
C  C1  1  0.31650000  0.06120000  0.09216000  1.0 0.522788107
C  C2  1  0.19280000  0.03820000  0.06781000  1.0 -0.0089194614
C  C3  1  0.11700000  0.01800000  0.11336000  1.0 -0.1001912136
C  C4  1  0.00500000  0.99500000  0.09136000  1.0 -0.1697716866
C  C5  1  0.15340000  0.03500000  0.00156000  1.0 -0.200191154
C  C6  1  0.03770000  0.00990000  0.97653000  1.0 0.077559981
C  C7  1  0.50580000  0.10050000  0.31307000  1.0 0.5422770079
C  C8  1  0.50250000  0.08100000  0.38554000  1.0 -0.0571328127
C  C9  1  0.50570000  0.97140000  0.41101000  1.0 -0.1613100175
C  C10  1  0.50240000  0.95190000  0.47891000  1.0 0.063453007
C  C11  1  0.50500000  0.83930000  0.50613000  1.0 -0.1697716866
C  C12  1  0.50390000  0.82360000  0.57227000  1.0 -0.1180990082
C  C13  1  0.48760000  0.33320000  0.14922000  1.0 -0.524240524
C  C14  1  0.59150000  0.27220000  0.13839000  1.0 0.3208047892
C  C15  1  0.75650000  0.23500000  0.10708000  1.0 -0.0799398414
C  C16  1  0.71850000  0.13930000  0.13484000  1.0 -0.0473430189
C  C17  1  0.68210000  0.43210000  0.08140000  1.0 0.1507512747
C  C18  1  0.70460000  0.44090000  0.01722000  1.0 -0.200191154
C  C19  1  0.71290000  0.54930000  0.98978000  1.0 -0.0473430189
C  C20  1  0.69800000  0.64810000  0.02517000  1.0 -0.200191154
C  C21  1  0.67520000  0.63640000  0.08893000  1.0 0.1715244361
C  C22  1  0.66800000  0.52930000  0.11831000  1.0 -0.2687472557
C  C23  1  0.48230000  0.81330000  0.06205000  1.0 -0.524240524
C  C24  1  0.57930000  0.81780000  0.11755000  1.0 0.4268597062
C  C25  1  0.69280000  0.86460000  0.20656000  1.0 -0.0089194614
C  C26  1  0.73530000  0.76810000  0.18478000  1.0 -0.106095199
C  C27  1  0.68350000  0.93880000  0.90784000  1.0 0.522788107
C  C28  1  0.80720000  0.96180000  0.93219000  1.0 -0.0089194614
C  C29  1  0.88300000  0.98200000  0.88664000  1.0 -0.1001912136
C  C30  1  0.99500000  0.00500000  0.90864000  1.0 -0.1697716866
C  C31  1  0.84660000  0.96500000  0.99844000  1.0 -0.200191154
C  C32  1  0.96230000  0.99010000  0.02347000  1.0 0.077559981
C  C33  1  0.49420000  0.89950000  0.68693000  1.0 0.5422770079
C  C34  1  0.49750000  0.91900000  0.61446000  1.0 -0.0571328127
C  C35  1  0.49430000  0.02860000  0.58899000  1.0 -0.1613100175
C  C36  1  0.49760000  0.04810000  0.52109000  1.0 0.063453007
C  C37  1  0.49500000  0.16070000  0.49387000  1.0 -0.1697716866
C  C38  1  0.49610000  0.17640000  0.42773000  1.0 -0.1180990082
C  C39  1  0.51240000  0.66680000  0.85078000  1.0 -0.524240524
C  C40  1  0.40850000  0.72780000  0.86161000  1.0 0.3208047892
C  C41  1  0.24350000  0.76500000  0.89292000  1.0 -0.0799398414
C  C42  1  0.28150000  0.86070000  0.86516000  1.0 -0.0473430189
C  C43  1  0.31790000  0.56790000  0.91860000  1.0 0.1507512747
C  C44  1  0.29540000  0.55910000  0.98278000  1.0 -0.200191154
C  C45  1  0.28710000  0.45070000  0.01022000  1.0 -0.0473430189
C  C46  1  0.30200000  0.35190000  0.97483000  1.0 -0.200191154
C  C47  1  0.32480000  0.36360000  0.91107000  1.0 0.1715244361
C  C48  1  0.33200000  0.47070000  0.88169000  1.0 -0.2687472557
C  C49  1  0.51770000  0.18670000  0.93795000  1.0 -0.524240524
C  C50  1  0.42070000  0.18220000  0.88245000  1.0 0.4268597062
C  C51  1  0.30720000  0.13540000  0.79344000  1.0 -0.0089194614
C  C52  1  0.26470000  0.23190000  0.81522000  1.0 -0.106095199
C  C53  1  0.00250000  0.54860000  0.97860000  1.0 0.0740693691
C  C54  1  0.00560000  0.39840000  0.81317000  1.0 0.5422770079
C  C55  1  0.00250000  0.41930000  0.88545000  1.0 -0.0198297256
C  C56  1  0.00570000  0.52820000  0.91125000  1.0 -0.200191154
C  C57  1  0.99620000  0.32310000  0.92770000  1.0 -0.1303908233
C  C58  1  0.99500000  0.34010000  0.99380000  1.0 -0.1697716866
C  C59  1  0.81660000  0.43940000  0.59205000  1.0 0.5422770079
C  C60  1  0.69290000  0.46210000  0.56779000  1.0 -0.0198297256
C  C61  1  0.61640000  0.48260000  0.61342000  1.0 -0.0945109133
C  C62  1  0.50480000  0.50490000  0.59143000  1.0 -0.1613100175
C  C63  1  0.65350000  0.46490000  0.50182000  1.0 -0.1752193872
C  C64  1  0.53750000  0.49010000  0.47671000  1.0 0.063453007
C  C65  1  0.98250000  0.68700000  0.56219000  1.0 -0.5481018429
C  C66  1  0.07940000  0.68260000  0.61717000  1.0 0.3976070579
C  C67  1  0.19250000  0.63500000  0.70699000  1.0 -0.0473430189
C  C68  1  0.23600000  0.73190000  0.68480000  1.0 -0.1001912136
C  C69  1  0.17540000  0.86380000  0.58915000  1.0 0.1798720281
C  C70  1  0.16780000  0.97040000  0.61815000  1.0 -0.2572648231
C  C71  1  0.18210000  0.06830000  0.58119000  1.0 0.1610411588
C  C72  1  0.20440000  0.05900000  0.51725000  1.0 -0.1861881618
C  C73  1  0.21290000  0.95120000  0.48966000  1.0 -0.0323411771
C  C74  1  0.19760000  0.85210000  0.52521000  1.0 -0.200191154
C  C75  1  0.98750000  0.16650000  0.64953000  1.0 -0.5018374378
C  C76  1  0.09220000  0.22810000  0.63842000  1.0 0.3278649445
C  C77  1  0.25640000  0.26510000  0.60729000  1.0 -0.0799398414
C  C78  1  0.21920000  0.36060000  0.63505000  1.0 0.0275642104
C  C79  1  0.99750000  0.45140000  0.02140000  1.0 0.0740693691
C  C80  1  0.99440000  0.60160000  0.18683000  1.0 0.5422770079
C  C81  1  0.99750000  0.58070000  0.11455000  1.0 -0.0198297256
C  C82  1  0.99430000  0.47180000  0.08875000  1.0 -0.200191154
C  C83  1  0.00380000  0.67690000  0.07230000  1.0 -0.1303908233
C  C84  1  0.00500000  0.65990000  0.00620000  1.0 -0.1697716866
C  C85  1  0.18340000  0.56060000  0.40795000  1.0 0.5422770079
C  C86  1  0.30710000  0.53790000  0.43221000  1.0 -0.0198297256
C  C87  1  0.38360000  0.51740000  0.38658000  1.0 -0.0945109133
C  C88  1  0.49520000  0.49510000  0.40857000  1.0 -0.1613100175
C  C89  1  0.34650000  0.53510000  0.49818000  1.0 -0.1752193872
C  C90  1  0.46250000  0.50990000  0.52329000  1.0 0.063453007
C  C91  1  0.01750000  0.31300000  0.43781000  1.0 -0.5481018429
C  C92  1  0.92060000  0.31740000  0.38283000  1.0 0.3976070579
C  C93  1  0.80750000  0.36500000  0.29301000  1.0 -0.0473430189
C  C94  1  0.76400000  0.26810000  0.31520000  1.0 -0.1001912136
C  C95  1  0.82460000  0.13620000  0.41085000  1.0 0.1798720281
C  C96  1  0.83220000  0.02960000  0.38185000  1.0 -0.2572648231
C  C97  1  0.81790000  0.93170000  0.41881000  1.0 0.1610411588
C  C98  1  0.79560000  0.94100000  0.48275000  1.0 -0.1861881618
C  C99  1  0.78710000  0.04880000  0.51034000  1.0 -0.0323411771
C  C100  1  0.80240000  0.14790000  0.47479000  1.0 -0.200191154
C  C101  1  0.01250000  0.83350000  0.35047000  1.0 -0.5018374378
C  C102  1  0.90780000  0.77190000  0.36158000  1.0 0.3278649445
C  C103  1  0.74360000  0.73490000  0.39271000  1.0 -0.0799398414
C  C104  1  0.78080000  0.63940000  0.36495000  1.0 0.0275642104
N  N1  1  0.61524000  0.16344000  0.15429000  1.0 -0.2779114996
N  N2  1  0.67690000  0.31867000  0.10957000  1.0 -0.0198297256
N  N3  1  0.66360000  0.73750000  0.12813000  1.0 -0.0799398414
N  N4  1  0.59530000  0.89566000  0.16487000  1.0 -0.4153113369
N  N5  1  0.38476000  0.83656000  0.84571000  1.0 -0.2779114996
N  N6  1  0.32310000  0.68133000  0.89043000  1.0 -0.0198297256
N  N7  1  0.33640000  0.26250000  0.87187000  1.0 -0.0799398414
N  N8  1  0.40470000  0.10434000  0.83513000  1.0 -0.4153113369
N  N9  1  0.09540000  0.60380000  0.66495000  1.0 -0.3283151244
N  N10  1  0.16330000  0.76236000  0.62811000  1.0 -0.0378179778
N  N11  1  0.17660000  0.18142000  0.60934000  1.0 -0.0473430189
N  N12  1  0.11546000  0.33639000  0.65443000  1.0 -0.3283151244
N  N13  1  0.90460000  0.39620000  0.33505000  1.0 -0.3283151244
N  N14  1  0.83670000  0.23764000  0.37189000  1.0 -0.0378179778
N  N15  1  0.82340000  0.81858000  0.39066000  1.0 -0.0473430189
N  N16  1  0.88454000  0.66361000  0.34557000  1.0 -0.3283151244
O  O1  1  0.35065000  0.03880000  0.15350000  1.0 -0.5111304228
O  O2  1  0.37820000  0.09670000  0.05397000  1.0 -0.4285837714
O  O3  1  0.52990000  0.01350000  0.28031000  1.0 -0.6085637514
O  O4  1  0.48560000  0.19710000  0.28909000  1.0 -0.5018374378
O  O5  1  0.64935000  0.96120000  0.84650000  1.0 -0.5111304228
O  O6  1  0.62180000  0.90330000  0.94603000  1.0 -0.4285837714
O  O7  1  0.47010000  0.98650000  0.71969000  1.0 -0.6085637514
O  O8  1  0.51440000  0.80290000  0.71091000  1.0 -0.5018374378
O  O9  1  0.02980000  0.48650000  0.78021000  1.0 -0.4640157227
O  O10  1  0.98600000  0.30310000  0.78917000  1.0 -0.6000520293
O  O11  1  0.85062000  0.46125000  0.65338000  1.0 -0.6175244753
O  O12  1  0.87790000  0.40330000  0.55397000  1.0 -0.5018374378
O  O13  1  0.97020000  0.51350000  0.21979000  1.0 -0.465312988
O  O14  1  0.01400000  0.69690000  0.21083000  1.0 -0.6000520293
O  O15  1  0.14938000  0.53875000  0.34662000  1.0 -0.6175244753
O  O16  1  0.12210000  0.59670000  0.44603000  1.0 -0.5018374378
