# DDEC6 charges by PACMAN v1.1 (https://github.com/mtap-research/PACMAN-charge/)
data_XACQAT_ASR_pacman
_symmetry_space_group_name_H-M   'P 1'
_cell_length_a   5.04000000
_cell_length_b   22.73800000
_cell_length_c   9.29680000
_cell_angle_alpha   90.00000000
_cell_angle_beta   103.80000000
_cell_angle_gamma   90.00000000
_symmetry_Int_Tables_number   1
_chemical_formula_structural   Ga4(PO4)5
_chemical_formula_sum   'Ga8 P10 O40'
_cell_volume   1034.65502483
_cell_formula_units_Z   2
loop_
 _symmetry_equiv_pos_site_id
 _symmetry_equiv_pos_as_xyz
  1  'x, y, z'
loop_
 _atom_site_type_symbol
 _atom_site_label
 _atom_site_symmetry_multiplicity
 _atom_site_fract_x
 _atom_site_fract_y
 _atom_site_fract_z
 _atom_site_occupancy
 _atom_site_charge
Ga  Ga1  1  0.18050000  0.78881000  0.25417000  1.0 1.5605781989
Ga  Ga2  1  0.81950000  0.28881000  0.74583000  1.0 1.5605781989
Ga  Ga3  1  0.82040000  0.93693000  0.39834000  1.0 1.5413078265
Ga  Ga4  1  0.17960000  0.43693000  0.60166000  1.0 1.5413078265
Ga  Ga5  1  0.06810000  0.07286000  0.98302000  1.0 1.549241006
Ga  Ga6  1  0.93190000  0.57286000  0.01698000  1.0 1.549241006
Ga  Ga7  1  0.42870000  0.92263000  0.84873000  1.0 1.549241006
Ga  Ga8  1  0.57130000  0.42263000  0.15127000  1.0 1.5413078265
P  P1  1  0.65000000  0.84500000  0.12230000  1.0 1.5605781989
P  P2  1  0.35000000  0.34500000  0.87770000  1.0 1.5605781989
P  P3  1  0.88390000  0.98310000  0.73090000  1.0 1.5605781989
P  P4  1  0.11610000  0.48310000  0.26910000  1.0 1.5660314755
P  P5  1  0.59480000  0.01722000  0.12300000  1.0 1.5760925608
P  P6  1  0.40520000  0.51722000  0.87700000  1.0 1.5760925608
P  P7  1  0.68300000  0.16953000  0.86380000  1.0 1.4386769728
P  P8  1  0.31700000  0.66953000  0.13620000  1.0 1.4322357373
P  P9  1  0.36860000  0.87235000  0.51590000  1.0 1.5760925608
P  P10  1  0.63140000  0.37235000  0.48410000  1.0 1.5760925608
O  O1  1  0.23510000  0.81340000  0.44390000  1.0 -0.7079410159
O  O2  1  0.76490000  0.31340000  0.55610000  1.0 -0.7079410159
O  O3  1  0.71790000  0.21100000  0.74010000  1.0 -0.6993307723
O  O4  1  0.28210000  0.71100000  0.25990000  1.0 -0.6917173518
O  O5  1  0.82040000  0.78600000  0.14850000  1.0 -0.6993307723
O  O6  1  0.17960000  0.28600000  0.85150000  1.0 -0.6993307723
O  O7  1  0.36540000  0.83260000  0.14630000  1.0 -0.7322484283
O  O8  1  0.63460000  0.33260000  0.85370000  1.0 -0.7322484283
O  O9  1  0.81080000  0.88950000  0.22200000  1.0 -0.7168571754
O  O10  1  0.18920000  0.38950000  0.77800000  1.0 -0.7168571754
O  O11  1  0.19830000  0.92490000  0.45190000  1.0 -0.7371918959
O  O12  1  0.80170000  0.42490000  0.54810000  1.0 -0.7371918959
O  O13  1  0.64810000  0.99910000  0.28660000  1.0 -0.6800984147
O  O14  1  0.35190000  0.49910000  0.71340000  1.0 -0.6800984147
O  O15  1  0.86180000  0.99020000  0.56540000  1.0 -0.6711685462
O  O16  1  0.13820000  0.49020000  0.43460000  1.0 -0.6711685462
O  O17  1  0.65400000  0.87690000  0.48530000  1.0 -0.7458882732
O  O18  1  0.34600000  0.37690000  0.51470000  1.0 -0.7458882732
O  O19  1  0.96540000  0.14940000  0.95610000  1.0 -0.6917173518
O  O20  1  0.03460000  0.64940000  0.04390000  1.0 -0.6800984147
O  O21  1  0.41140000  0.07180000  0.10280000  1.0 -0.6917173518
O  O22  1  0.58860000  0.57180000  0.89720000  1.0 -0.6917173518
O  O23  1  0.87080000  0.03210000  0.09270000  1.0 -0.7322484283
O  O24  1  0.12920000  0.53210000  0.90730000  1.0 -0.7322484283
O  O25  1  0.02700000  0.03830000  0.80190000  1.0 -0.7079410159
O  O26  1  0.97300000  0.53830000  0.19810000  1.0 -0.6993307723
O  O27  1  0.61390000  0.85850000  0.95720000  1.0 -0.6624071403
O  O28  1  0.38610000  0.35850000  0.04280000  1.0 -0.6624071403
O  O29  1  0.44720000  0.96790000  0.02380000  1.0 -0.7322484283
O  O30  1  0.55280000  0.46790000  0.97620000  1.0 -0.7322484283
O  O31  1  0.39050000  0.86330000  0.68020000  1.0 -0.650901
O  O32  1  0.60950000  0.36330000  0.31980000  1.0 -0.650901
O  O33  1  0.59670000  0.97700000  0.75650000  1.0 -0.7168571754
O  O34  1  0.40330000  0.47700000  0.24350000  1.0 -0.7168571754
O  O35  1  0.04730000  0.92730000  0.79540000  1.0 -0.7322484283
O  O36  1  0.95270000  0.42730000  0.20460000  1.0 -0.7322484283
O  O37  1  0.57490000  0.20720000  0.98080000  1.0 -0.5801361306
O  O38  1  0.42510000  0.70720000  0.01920000  1.0 -0.5801361306
O  O39  1  0.49570000  0.11980000  0.80280000  1.0 -0.6333695156
O  O40  1  0.50430000  0.61980000  0.19720000  1.0 -0.6333695156
