# DDEC6 charges by PACMAN v1.1 (https://github.com/mtap-research/PACMAN-charge/)
data_XADDAJ_FSR_pacman
_symmetry_space_group_name_H-M   'P 1'
_cell_length_a   12.68040000
_cell_length_b   13.84400000
_cell_length_c   27.89720000
_cell_angle_alpha   75.49590000
_cell_angle_beta   80.45820000
_cell_angle_gamma   85.54400000
_symmetry_Int_Tables_number   1
_chemical_formula_structural   Tb2H14C33NO17
_chemical_formula_sum   'Tb8 H56 C132 N4 O68'
_cell_volume   4672.25195980
_cell_formula_units_Z   4
loop_
 _symmetry_equiv_pos_site_id
 _symmetry_equiv_pos_as_xyz
  1  'x, y, z'
loop_
 _atom_site_type_symbol
 _atom_site_label
 _atom_site_symmetry_multiplicity
 _atom_site_fract_x
 _atom_site_fract_y
 _atom_site_fract_z
 _atom_site_occupancy
 _atom_site_charge
Tb  Tb1  1  0.96400000  0.62607000  0.93992000  1.0 2.0730457154
Tb  Tb2  1  0.03600000  0.37393000  0.06008000  1.0 2.0730457154
Tb  Tb3  1  0.87844000  0.52138000  0.55197000  1.0 2.0320577469
Tb  Tb4  1  0.12156000  0.47862000  0.44803000  1.0 2.0320577469
Tb  Tb5  1  0.53601000  0.96233000  0.58547000  1.0 2.0611814108
Tb  Tb6  1  0.46399000  0.03767000  0.41453000  1.0 2.0611814108
Tb  Tb7  1  0.51085000  0.97805000  0.91347000  1.0 2.0611814108
Tb  Tb8  1  0.48915000  0.02195000  0.08653000  1.0 2.0611814108
H  H1  1  0.26270000  0.26280000  0.94250000  1.0 0.1297692584
H  H2  1  0.73730000  0.73720000  0.05750000  1.0 0.1297692584
H  H3  1  0.23970000  0.52780000  0.84340000  1.0 0.1297692584
H  H4  1  0.76030000  0.47220000  0.15660000  1.0 0.1297692584
H  H5  1  0.97310000  0.23900000  0.65480000  1.0 0.1297692584
H  H6  1  0.02690000  0.76100000  0.34520000  1.0 0.1297692584
H  H7  1  0.44710000  0.31410000  0.80780000  1.0 0.120552929
H  H8  1  0.55290000  0.68590000  0.19220000  1.0 0.120552929
H  H9  1  0.93880000  0.40550000  0.80870000  1.0 0.1297692584
H  H10  1  0.06120000  0.59450000  0.19130000  1.0 0.1297692584
H  H11  1  0.25380000  0.22870000  0.56560000  1.0 0.1389527876
H  H12  1  0.74620000  0.77130000  0.43440000  1.0 0.1389527876
H  H13  1  0.49290000  0.51680000  0.65280000  1.0 0.120552929
H  H14  1  0.50710000  0.48320000  0.34720000  1.0 0.120552929
H  H15  1  0.38320000  0.62670000  0.79750000  1.0 0.120552929
H  H16  1  0.61680000  0.37330000  0.20250000  1.0 0.120552929
H  H17  1  0.74600000  0.22820000  0.01150000  1.0 0.1389527876
H  H18  1  0.25400000  0.77180000  0.98850000  1.0 0.1389527876
H  H19  1  0.64230000  0.32540000  0.80740000  1.0 0.1297692584
H  H20  1  0.35770000  0.67460000  0.19260000  1.0 0.1297692584
H  H21  1  0.45230000  0.73720000  0.72500000  1.0 0.1297692584
H  H22  1  0.54770000  0.26280000  0.27500000  1.0 0.1297692584
H  H23  1  0.92500000  0.19890000  0.74490000  1.0 0.120552929
H  H24  1  0.07500000  0.80110000  0.25510000  1.0 0.120552929
H  H25  1  0.86180000  0.42780000  0.88610000  1.0 0.1389527876
H  H26  1  0.13820000  0.57220000  0.11390000  1.0 0.1389527876
H  H27  1  0.79420000  0.12380000  0.80830000  1.0 0.120552929
H  H28  1  0.20580000  0.87620000  0.19170000  1.0 0.120552929
H  H29  1  0.67680000  0.20880000  0.87880000  1.0 0.1297692584
H  H30  1  0.32320000  0.79120000  0.12120000  1.0 0.1297692584
H  H31  1  0.66760000  0.37580000  0.72100000  1.0 0.120552929
H  H32  1  0.33240000  0.62420000  0.27900000  1.0 0.120552929
H  H33  1  0.19010000  0.01720000  0.69340000  1.0 0.1297692584
H  H34  1  0.80990000  0.98280000  0.30660000  1.0 0.1297692584
H  H35  1  0.96260000  0.45770000  0.72230000  1.0 0.1297692584
H  H36  1  0.03740000  0.54230000  0.27770000  1.0 0.1297692584
H  H37  1  0.42380000  0.40450000  0.72590000  1.0 0.120552929
H  H38  1  0.57620000  0.59550000  0.27410000  1.0 0.120552929
H  H39  1  0.90360000  0.85500000  0.78840000  1.0 0.120552929
H  H40  1  0.09640000  0.14500000  0.21160000  1.0 0.120552929
H  H41  1  0.03360000  0.93000000  0.72440000  1.0 0.120552929
H  H42  1  0.96640000  0.07000000  0.27560000  1.0 0.120552929
H  H43  1  0.27090000  0.83480000  0.61630000  1.0 0.1297692584
H  H44  1  0.72910000  0.16520000  0.38370000  1.0 0.1297692584
H  H45  1  0.93870000  0.61780000  0.76570000  1.0 0.1297692584
H  H46  1  0.06130000  0.38220000  0.23430000  1.0 0.1297692584
H  H47  1  0.08500000  0.61580000  0.61080000  1.0 0.1297692584
H  H48  1  0.91500000  0.38420000  0.38920000  1.0 0.1297692584
H  H49  1  0.27800000  0.75470000  0.48700000  1.0 0.1389527876
H  H50  1  0.72200000  0.24530000  0.51300000  1.0 0.1389527876
H  H51  1  0.25150000  0.77780000  0.69330000  1.0 0.1297692584
H  H52  1  0.74850000  0.22220000  0.30670000  1.0 0.1297692584
H  H53  1  0.99640000  0.63960000  0.68080000  1.0 0.1297692584
H  H54  1  0.00360000  0.36040000  0.31920000  1.0 0.1297692584
H  H55  1  0.19050000  0.76220000  0.77780000  1.0 0.1297692584
H  H56  1  0.80950000  0.23780000  0.22220000  1.0 0.1297692584
C  C1  1  0.28370000  0.30474000  0.91116000  1.0 -0.0956740308
C  C2  1  0.71630000  0.69526000  0.08884000  1.0 -0.0956740308
C  C3  1  0.27100000  0.46405000  0.85175000  1.0 -0.1428180125
C  C4  1  0.72900000  0.53595000  0.14825000  1.0 -0.1428180125
C  C5  1  0.03920000  0.20721000  0.64799000  1.0 -0.1335123267
C  C6  1  0.96080000  0.79279000  0.35201000  1.0 -0.1335123267
C  C7  1  0.39500000  0.33642000  0.83068000  1.0 -0.1428180125
C  C8  1  0.60500000  0.66358000  0.16932000  1.0 -0.1428180125
C  C9  1  0.88390000  0.39945000  0.79135000  1.0 -0.1492194973
C  C10  1  0.11610000  0.60055000  0.20865000  1.0 -0.1492194973
C  C11  1  0.41390000  0.17063000  0.89077000  1.0 0.5598490086
C  C12  1  0.58610000  0.82937000  0.10923000  1.0 0.5598490086
C  C13  1  0.81940000  0.42157000  0.71273000  1.0 -0.0164903677
C  C14  1  0.18060000  0.57843000  0.28727000  1.0 -0.0164903677
C  C15  1  0.20760000  0.20180000  0.59470000  1.0 -0.0906981071
C  C16  1  0.79240000  0.79820000  0.40530000  1.0 -0.0906981071
C  C17  1  0.83480000  0.45853000  0.65697000  1.0 0.5479688194
C  C18  1  0.16520000  0.54147000  0.34303000  1.0 0.5479688194
C  C19  1  0.47050000  0.53900000  0.68180000  1.0 -0.0846399565
C  C20  1  0.52950000  0.46100000  0.31820000  1.0 -0.0846399565
C  C21  1  0.23930000  0.11692000  0.62818000  1.0 -0.0070755178
C  C22  1  0.76070000  0.88308000  0.37182000  1.0 -0.0070755178
C  C23  1  0.40480000  0.60440000  0.76850000  1.0 -0.1492194973
C  C24  1  0.59520000  0.39560000  0.23150000  1.0 -0.1492194973
C  C25  1  0.75180000  0.25262000  0.97698000  1.0 -0.0956740308
C  C26  1  0.24820000  0.74738000  0.02302000  1.0 -0.0956740308
C  C27  1  0.36210000  0.27162000  0.87728000  1.0 -0.0164903677
C  C28  1  0.63790000  0.72838000  0.12272000  1.0 -0.0164903677
C  C29  1  0.39520000  0.50388000  0.76952000  1.0 0.0804584828
C  C30  1  0.60480000  0.49612000  0.23048000  1.0 0.0804584828
C  C31  1  0.99090000  0.07217000  0.72683000  1.0 0.0804584828
C  C32  1  0.00910000  0.92783000  0.27317000  1.0 0.0804584828
C  C33  1  0.70720000  0.35154000  0.79036000  1.0 -0.1492194973
C  C34  1  0.29280000  0.64846000  0.20964000  1.0 -0.1492194973
C  C35  1  0.69880000  0.20691000  0.94939000  1.0 -0.0277434644
C  C36  1  0.30120000  0.79309000  0.05061000  1.0 -0.0277434644
C  C37  1  0.06870000  0.12042000  0.68188000  1.0 0.0599602066
C  C38  1  0.93130000  0.87958000  0.31812000  1.0 0.0599602066
C  C39  1  0.23600000  0.39999000  0.89881000  1.0 -0.0164903677
C  C40  1  0.76400000  0.60001000  0.10119000  1.0 -0.0164903677
C  C41  1  0.44620000  0.67070000  0.72490000  1.0 -0.0846399565
C  C42  1  0.55380000  0.32930000  0.27510000  1.0 -0.0846399565
C  C43  1  0.91980000  0.12990000  0.75300000  1.0 -0.1492194973
C  C44  1  0.08020000  0.87010000  0.24700000  1.0 -0.1492194973
C  C45  1  0.82250000  0.37147000  0.90163000  1.0 -0.1492194973
C  C46  1  0.17750000  0.62853000  0.09837000  1.0 -0.1492194973
C  C47  1  0.47900000  0.63988000  0.68062000  1.0 -0.0351750928
C  C48  1  0.52100000  0.36012000  0.31938000  1.0 -0.0351750928
C  C49  1  0.35170000  0.43340000  0.81760000  1.0 0.0599602066
C  C50  1  0.64830000  0.56660000  0.18240000  1.0 0.0599602066
C  C51  1  0.84130000  0.08485000  0.79105000  1.0 -0.0906981071
C  C52  1  0.15870000  0.91515000  0.20895000  1.0 -0.0906981071
C  C53  1  0.77270000  0.32393000  0.87297000  1.0 0.0708830974
C  C54  1  0.22730000  0.67607000  0.12703000  1.0 0.0708830974
C  C55  1  0.71030000  0.24098000  0.89732000  1.0 -0.1428180125
C  C56  1  0.28970000  0.75902000  0.10268000  1.0 -0.1428180125
C  C57  1  0.10810000  0.24672000  0.60408000  1.0 -0.0164903677
C  C58  1  0.89190000  0.75328000  0.39592000  1.0 -0.0164903677
C  C59  1  0.72210000  0.38180000  0.73860000  1.0 -0.0846399565
C  C60  1  0.27790000  0.61820000  0.26140000  1.0 -0.0846399565
C  C61  1  0.16940000  0.07537000  0.67143000  1.0 -0.1492194973
C  C62  1  0.83060000  0.92463000  0.32857000  1.0 -0.1492194973
C  C63  1  0.91640000  0.83580000  0.97690000  1.0 0.413818523
C  C64  1  0.08360000  0.16420000  0.02310000  1.0 0.418456405
C  C65  1  0.83250000  0.98097000  0.80373000  1.0 -0.0277434644
C  C66  1  0.16750000  0.01903000  0.19627000  1.0 -0.0277434644
C  C67  1  0.86080000  0.96740000  0.02110000  1.0 0.0108534804
C  C68  1  0.13920000  0.03260000  0.97890000  1.0 0.0108534804
C  C69  1  0.89820000  0.43045000  0.73935000  1.0 -0.0906981071
C  C70  1  0.10180000  0.56955000  0.26065000  1.0 -0.0956740308
C  C71  1  0.42900000  0.47120000  0.72580000  1.0 -0.1583144854
C  C72  1  0.57100000  0.52880000  0.27420000  1.0 -0.1583144854
C  C73  1  0.78770000  0.35935000  0.81755000  1.0 0.0708830974
C  C74  1  0.21230000  0.64065000  0.18245000  1.0 0.0708830974
C  C75  1  0.87730000  0.00140000  0.92660000  1.0 0.1016094607
C  C76  1  0.12270000  0.99860000  0.07340000  1.0 0.1016094607
C  C77  1  0.74080000  0.93199000  0.84151000  1.0 0.5866072026
C  C78  1  0.25920000  0.06801000  0.15849000  1.0 0.5866072026
C  C79  1  0.90630000  0.92420000  0.77920000  1.0 -0.0846399565
C  C80  1  0.09370000  0.07580000  0.22080000  1.0 -0.0846399565
C  C81  1  0.98490000  0.96920000  0.74080000  1.0 -0.1492194973
C  C82  1  0.01510000  0.03080000  0.25920000  1.0 -0.1492194973
C  C83  1  0.15140000  0.43512000  0.93638000  1.0 0.6486495978
C  C84  1  0.84860000  0.56488000  0.06362000  1.0 0.6486495978
C  C85  1  0.07030000  0.33531000  0.56519000  1.0 0.6486495978
C  C86  1  0.92970000  0.66469000  0.43481000  1.0 0.6486495978
C  C87  1  0.63190000  0.11987000  0.97673000  1.0 0.6622009125
C  C88  1  0.36810000  0.88013000  0.02327000  1.0 0.6622009125
C  C89  1  0.02040000  0.67112000  0.83578000  1.0 0.5479688194
C  C90  1  0.97960000  0.32888000  0.16422000  1.0 0.5479688194
C  C91  1  0.24610000  0.79501000  0.59849000  1.0 -0.1335123267
C  C92  1  0.75390000  0.20499000  0.40151000  1.0 -0.1335123267
C  C93  1  0.05830000  0.68625000  0.78065000  1.0 -0.0164903677
C  C94  1  0.94170000  0.31375000  0.21935000  1.0 -0.0164903677
C  C95  1  0.34730000  0.06674000  0.61726000  1.0 0.5703143176
C  C96  1  0.65270000  0.93326000  0.38274000  1.0 0.5703143176
C  C97  1  0.87410000  0.38048000  0.98332000  1.0 0.6486495978
C  C98  1  0.12590000  0.61952000  0.01668000  1.0 0.6486495978
C  C99  1  0.00160000  0.65088000  0.75122000  1.0 -0.0906981071
C  C100  1  0.99840000  0.34912000  0.24878000  1.0 -0.0906981071
C  C101  1  0.17690000  0.67437000  0.54453000  1.0 -0.0164903677
C  C102  1  0.82310000  0.32563000  0.45547000  1.0 -0.0164903677
C  C103  1  0.28410000  0.80796000  0.54764000  1.0 -0.0277434644
C  C104  1  0.71590000  0.19204000  0.45236000  1.0 -0.0277434644
C  C105  1  0.13600000  0.66318000  0.59532000  1.0 -0.1428180125
C  C106  1  0.86400000  0.33682000  0.40468000  1.0 -0.1428180125
C  C107  1  0.51980000  0.71461000  0.63349000  1.0 0.5703143176
C  C108  1  0.48020000  0.28539000  0.36651000  1.0 0.5703143176
C  C109  1  0.14320000  0.60966000  0.51474000  1.0 0.6213881221
C  C110  1  0.85680000  0.39034000  0.48526000  1.0 0.6213881221
C  C111  1  0.17090000  0.72262000  0.62328000  1.0 0.0804584828
C  C112  1  0.82910000  0.27738000  0.37672000  1.0 0.0804584828
C  C113  1  0.25080000  0.74701000  0.52079000  1.0 -0.0956740308
C  C114  1  0.74920000  0.25299000  0.47921000  1.0 -0.0956740308
C  C115  1  0.18770000  0.74642000  0.70758000  1.0 -0.1335123267
C  C116  1  0.81230000  0.25358000  0.29242000  1.0 -0.1335123267
C  C117  1  0.81330000  0.33431000  0.95339000  1.0 -0.0277434644
C  C118  1  0.18670000  0.66569000  0.04661000  1.0 -0.0277434644
C  C119  1  0.03650000  0.66346000  0.70014000  1.0 -0.1335123267
C  C120  1  0.96350000  0.33654000  0.29986000  1.0 -0.1335123267
C  C121  1  0.15200000  0.73602000  0.75868000  1.0 -0.0906981071
C  C122  1  0.84800000  0.26398000  0.24132000  1.0 -0.0906981071
C  C123  1  0.13090000  0.71148000  0.67782000  1.0 0.0804584828
C  C124  1  0.86910000  0.28852000  0.32218000  1.0 0.0804584828
C  C125  1  0.35770000  0.89116000  0.52144000  1.0 0.6412516084
C  C126  1  0.64230000  0.10884000  0.47856000  1.0 0.6412516084
C  C127  1  0.56380000  0.06310000  0.68280000  1.0 0.418456405
C  C128  1  0.43620000  0.93690000  0.31720000  1.0 0.413818523
C  C129  1  0.71140000  0.17600000  0.66700000  1.0 0.1064486165
C  C130  1  0.28860000  0.82400000  0.33300000  1.0 0.1064486165
C  C131  1  0.57380000  0.15310000  0.74660000  1.0 0.0310870443
C  C132  1  0.42620000  0.84690000  0.25340000  1.0 0.0310870443
N  N1  1  0.88990000  0.93186000  0.97514000  1.0 -0.1583144854
N  N2  1  0.11010000  0.06814000  0.02486000  1.0 -0.1583144854
N  N3  1  0.61600000  0.12530000  0.69830000  1.0 -0.1428180125
N  N4  1  0.38400000  0.87470000  0.30170000  1.0 -0.1335123267
O  O1  1  0.48540000  0.14211000  0.85909000  1.0 -0.5992708657
O  O2  1  0.51460000  0.85789000  0.14091000  1.0 -0.5992708657
O  O3  1  0.93310000  0.79954000  0.93966000  1.0 -0.5322415385
O  O4  1  0.06690000  0.20046000  0.06034000  1.0 -0.5322415385
O  O5  1  0.38530000  0.11371000  0.93329000  1.0 -0.5423506651
O  O6  1  0.61470000  0.88629000  0.06671000  1.0 -0.5423506651
O  O7  1  0.77510000  0.42974000  0.63196000  1.0 -0.5596820268
O  O8  1  0.22490000  0.57026000  0.36804000  1.0 -0.5596820268
O  O9  1  0.91010000  0.51722000  0.63638000  1.0 -0.5796016011
O  O10  1  0.08990000  0.48278000  0.36362000  1.0 -0.5796016011
O  O11  1  0.89660000  0.32499000  0.02441000  1.0 -0.6287394989
O  O12  1  0.10340000  0.67501000  0.97559000  1.0 -0.6287394989
O  O13  1  0.97880000  0.37328000  0.57742000  1.0 -0.6507917124
O  O14  1  0.02120000  0.62672000  0.42258000  1.0 -0.6507917124
O  O15  1  0.41180000  0.10740000  0.57930000  1.0 -0.5718896839
O  O16  1  0.58820000  0.89260000  0.42070000  1.0 -0.5718896839
O  O17  1  0.39660000  0.93628000  0.54742000  1.0 -0.6287394989
O  O18  1  0.60340000  0.06372000  0.45258000  1.0 -0.6287394989
O  O19  1  0.72290000  0.91643000  0.59137000  1.0 -0.2330796722
O  O20  1  0.27710000  0.08357000  0.40863000  1.0 -0.2330796722
O  O21  1  0.05970000  0.71974000  0.86086000  1.0 -0.5874996785
O  O22  1  0.94030000  0.28026000  0.13914000  1.0 -0.5874996785
O  O23  1  0.78040000  0.66582000  0.92658000  1.0 -0.0906981071
O  O24  1  0.21960000  0.33418000  0.07342000  1.0 -0.0906981071
O  O25  1  0.11080000  0.52201000  0.92219000  1.0 -0.6507917124
O  O26  1  0.88920000  0.47799000  0.07781000  1.0 -0.6507917124
O  O27  1  0.20680000  0.59828000  0.47632000  1.0 -0.5718896839
O  O28  1  0.79320000  0.40172000  0.52368000  1.0 -0.5718896839
O  O29  1  0.12510000  0.37567000  0.97773000  1.0 -0.6287394989
O  O30  1  0.87490000  0.62433000  0.02227000  1.0 -0.6287394989
O  O31  1  0.05530000  0.56607000  0.52823000  1.0 -0.6897794757
O  O32  1  0.94470000  0.43393000  0.47177000  1.0 -0.6897794757
O  O33  1  0.90100000  0.46887000  0.96663000  1.0 -0.6507917124
O  O34  1  0.09900000  0.53113000  0.03337000  1.0 -0.6507917124
O  O35  1  0.61590000  0.86118000  0.96992000  1.0 -0.2016409416
O  O36  1  0.38410000  0.13882000  0.03008000  1.0 -0.2016409416
O  O37  1  0.13300000  0.36513000  0.52597000  1.0 -0.5874996785
O  O38  1  0.86700000  0.63487000  0.47403000  1.0 -0.5874996785
O  O39  1  0.51690000  0.80500000  0.63620000  1.0 -0.6507917124
O  O40  1  0.48310000  0.19500000  0.36380000  1.0 -0.6507917124
O  O41  1  0.37470000  0.91141000  0.47419000  1.0 -0.6144486222
O  O42  1  0.62530000  0.08859000  0.52581000  1.0 -0.6144486222
O  O43  1  0.60770000  0.85908000  0.52652000  1.0 0.0708830974
O  O44  1  0.39230000  0.14092000  0.47348000  1.0 0.0708830974
O  O45  1  0.59740000  0.06834000  0.95176000  1.0 -0.6371928606
O  O46  1  0.40260000  0.93166000  0.04824000  1.0 -0.6371928606
O  O47  1  0.67010000  0.99026000  0.85854000  1.0 -0.656098083
O  O48  1  0.32990000  0.00974000  0.14146000  1.0 -0.656098083
O  O49  1  0.37100000  0.98392000  0.64518000  1.0 -0.6287394989
O  O50  1  0.62900000  0.01608000  0.35482000  1.0 -0.6287394989
O  O51  1  0.61430000  0.10457000  0.02373000  1.0 -0.5992708657
O  O52  1  0.38570000  0.89543000  0.97627000  1.0 -0.5992708657
O  O53  1  0.52880000  0.82254000  0.88956000  1.0 -0.3291527483
O  O54  1  0.47120000  0.17746000  0.11044000  1.0 -0.3146483752
O  O55  1  0.59100000  0.03905000  0.64245000  1.0 -0.5718896839
O  O56  1  0.40900000  0.96095000  0.35755000  1.0 -0.5718896839
O  O57  1  0.73700000  0.83865000  0.85225000  1.0 -0.3740626726
O  O58  1  0.26300000  0.16135000  0.14775000  1.0 -0.3740626726
O  O59  1  0.35630000  0.97148000  0.87352000  1.0 -0.4070840928
O  O60  1  0.64370000  0.02852000  0.12648000  1.0 -0.4070840928
O  O61  1  0.85280000  0.68566000  0.56644000  1.0 -0.2910464708
O  O62  1  0.14720000  0.31434000  0.43356000  1.0 -0.2910464708
O  O63  1  0.55270000  0.68569000  0.59431000  1.0 -0.429517195
O  O64  1  0.44730000  0.31431000  0.40569000  1.0 -0.429517195
O  O65  1  0.68450000  0.55760000  0.55380000  1.0 0.0804584828
O  O66  1  0.31550000  0.44240000  0.44620000  1.0 0.0804584828
O  O67  1  0.94930000  0.60872000  0.85658000  1.0 -0.5796016011
O  O68  1  0.05070000  0.39128000  0.14342000  1.0 -0.5796016011
