# DDEC6 charges by PACMAN v1.1 (https://github.com/mtap-research/PACMAN-charge/)
data_XADDUD_FSR_pacman
_symmetry_space_group_name_H-M   'P 1'
_cell_length_a   22.30340000
_cell_length_b   22.30340000
_cell_length_c   22.30340000
_cell_angle_alpha   93.61910000
_cell_angle_beta   93.61910000
_cell_angle_gamma   150.89800000
_symmetry_Int_Tables_number   1
_chemical_formula_structural   Co2H18C19O10
_chemical_formula_sum   'Co16 H144 C152 O80'
_cell_volume   5222.96799652
_cell_formula_units_Z   8
loop_
 _symmetry_equiv_pos_site_id
 _symmetry_equiv_pos_as_xyz
  1  'x, y, z'
loop_
 _atom_site_type_symbol
 _atom_site_label
 _atom_site_symmetry_multiplicity
 _atom_site_fract_x
 _atom_site_fract_y
 _atom_site_fract_z
 _atom_site_occupancy
 _atom_site_charge
Co  Co1  1  0.18548000  0.56720000  0.84654000  1.0 0.88463299
Co  Co2  1  0.72066000  0.33894000  0.15346000  1.0 0.885295734
Co  Co3  1  0.58894000  0.93548000  0.11828000  1.0 0.88463299
Co  Co4  1  0.81720000  0.47066000  0.88172000  1.0 0.88463299
Co  Co5  1  0.06452000  0.18280000  0.65346000  1.0 0.88463299
Co  Co6  1  0.52934000  0.41106000  0.34654000  1.0 0.885295734
Co  Co7  1  0.66106000  0.81452000  0.38172000  1.0 0.88463299
Co  Co8  1  0.43280000  0.27934000  0.61828000  1.0 0.88463299
Co  Co9  1  0.97106000  0.49110000  0.85138000  1.0 1.0141625258
Co  Co10  1  0.63972000  0.11968000  0.14862000  1.0 1.0141625258
Co  Co11  1  0.36968000  0.72106000  0.97996000  1.0 1.0141625258
Co  Co12  1  0.74110000  0.38972000  0.02004000  1.0 1.0141625258
Co  Co13  1  0.27894000  0.25890000  0.64862000  1.0 1.0141625258
Co  Co14  1  0.61028000  0.63032000  0.35138000  1.0 1.0141625258
Co  Co15  1  0.88032000  0.02894000  0.52004000  1.0 1.0141625258
Co  Co16  1  0.50890000  0.36028000  0.47996000  1.0 1.0141625258
H  H1  1  0.68180000  0.13670000  0.70270000  1.0 0.1167304657
H  H2  1  0.43400000  0.97910000  0.29730000  1.0 0.1167304657
H  H3  1  0.22910000  0.43180000  0.04510000  1.0 0.1167304657
H  H4  1  0.38670000  0.18400000  0.95490000  1.0 0.1167304657
H  H5  1  0.56820000  0.61330000  0.79730000  1.0 0.1167304657
H  H6  1  0.81600000  0.77090000  0.20270000  1.0 0.1167304657
H  H7  1  0.02090000  0.31820000  0.45490000  1.0 0.1167304657
H  H8  1  0.86330000  0.56600000  0.54510000  1.0 0.1167304657
H  H9  1  0.56540000  0.97340000  0.62160000  1.0 0.1096134245
H  H10  1  0.35180000  0.94380000  0.37840000  1.0 0.1096134245
H  H11  1  0.19380000  0.31540000  0.09200000  1.0 0.1096134245
H  H12  1  0.22340000  0.10180000  0.90800000  1.0 0.1096134245
H  H13  1  0.68460000  0.77660000  0.87840000  1.0 0.1096134245
H  H14  1  0.89820000  0.80620000  0.12160000  1.0 0.1096134245
H  H15  1  0.05620000  0.43460000  0.40800000  1.0 0.1096134245
H  H16  1  0.02660000  0.64820000  0.59200000  1.0 0.1096134245
H  H17  1  0.65530000  0.96810000  0.58480000  1.0 0.1096134245
H  H18  1  0.38330000  0.07050000  0.41520000  1.0 0.1096134245
H  H19  1  0.32050000  0.40530000  0.18720000  1.0 0.1096134245
H  H20  1  0.21810000  0.13330000  0.81280000  1.0 0.1096134245
H  H21  1  0.59470000  0.78190000  0.91520000  1.0 0.1096134245
H  H22  1  0.86670000  0.67950000  0.08480000  1.0 0.1096134245
H  H23  1  0.92950000  0.34470000  0.31280000  1.0 0.1096134245
H  H24  1  0.03190000  0.61670000  0.68720000  1.0 0.1096134245
H  H25  1  0.97300000  0.27780000  0.71860000  1.0 0.1282423891
H  H26  1  0.55920000  0.25440000  0.28140000  1.0 0.1282423891
H  H27  1  0.50440000  0.72300000  0.19520000  1.0 0.1282423891
H  H28  1  0.52780000  0.30920000  0.80480000  1.0 0.1282423891
H  H29  1  0.27700000  0.47220000  0.78140000  1.0 0.1282423891
H  H30  1  0.69080000  0.49560000  0.21860000  1.0 0.1282423891
H  H31  1  0.74560000  0.02700000  0.30480000  1.0 0.1282423891
H  H32  1  0.72220000  0.44080000  0.69520000  1.0 0.1282423891
H  H33  1  0.12790000  0.45060000  0.03530000  1.0 0.1096134245
H  H34  1  0.41530000  0.09260000  0.96470000  1.0 0.1096134245
H  H35  1  0.34260000  0.87790000  0.17730000  1.0 0.1096134245
H  H36  1  0.70060000  0.16530000  0.82270000  1.0 0.1096134245
H  H37  1  0.12210000  0.29940000  0.46470000  1.0 0.1096134245
H  H38  1  0.83470000  0.65740000  0.53530000  1.0 0.1096134245
H  H39  1  0.90740000  0.87210000  0.32270000  1.0 0.1096134245
H  H40  1  0.54940000  0.58470000  0.67730000  1.0 0.1096134245
H  H41  1  0.06780000  0.38870000  0.12710000  1.0 0.1096134245
H  H42  1  0.26160000  0.94070000  0.87290000  1.0 0.1096134245
H  H43  1  0.19070000  0.81780000  0.17910000  1.0 0.1096134245
H  H44  1  0.63870000  0.01160000  0.82090000  1.0 0.1096134245
H  H45  1  0.18220000  0.36130000  0.37290000  1.0 0.1096134245
H  H46  1  0.98840000  0.80930000  0.62710000  1.0 0.1096134245
H  H47  1  0.05930000  0.93220000  0.32090000  1.0 0.1096134245
H  H48  1  0.61130000  0.73840000  0.67910000  1.0 0.1096134245
H  H49  1  0.94830000  0.35790000  0.16320000  1.0 0.1096134245
H  H50  1  0.19470000  0.78510000  0.83680000  1.0 0.1167304657
H  H51  1  0.03510000  0.69830000  0.09040000  1.0 0.1167304657
H  H52  1  0.60790000  0.94470000  0.90960000  1.0 0.1167304657
H  H53  1  0.30170000  0.39210000  0.33680000  1.0 0.1167304657
H  H54  1  0.05530000  0.96490000  0.66320000  1.0 0.1167304657
H  H55  1  0.21490000  0.05170000  0.40960000  1.0 0.1167304657
H  H56  1  0.64210000  0.80530000  0.59040000  1.0 0.1167304657
H  H57  1  0.96020000  0.46430000  0.01870000  1.0 0.1096134245
H  H58  1  0.44560000  0.94150000  0.98130000  1.0 0.1096134245
H  H59  1  0.19150000  0.71020000  0.99590000  1.0 0.1096134245
H  H60  1  0.71430000  0.19560000  0.00410000  1.0 0.1096134245
H  H61  1  0.28980000  0.28570000  0.48130000  1.0 0.1096134245
H  H62  1  0.80440000  0.80850000  0.51870000  1.0 0.1096134245
H  H63  1  0.05850000  0.03980000  0.50410000  1.0 0.1096134245
H  H64  1  0.53570000  0.55440000  0.49590000  1.0 0.1096134245
H  H65  1  0.31050000  0.67950000  0.76660000  1.0 0.2518890055
H  H66  1  0.91290000  0.54390000  0.23340000  1.0 0.2518890055
H  H67  1  0.79390000  0.06050000  0.13100000  1.0 0.2518890055
H  H68  1  0.92950000  0.66290000  0.86900000  1.0 0.2518890055
H  H69  1  0.93950000  0.07050000  0.73340000  1.0 0.2518890055
H  H70  1  0.33710000  0.20610000  0.26660000  1.0 0.2518890055
H  H71  1  0.45610000  0.68950000  0.36900000  1.0 0.2518890055
H  H72  1  0.32050000  0.08710000  0.63100000  1.0 0.2518890055
H  H73  1  0.19980000  0.55340000  0.73800000  1.0 0.2588616835
H  H74  1  0.81540000  0.46180000  0.26200000  1.0 0.2588616835
H  H75  1  0.71180000  0.94980000  0.14640000  1.0 0.2588616835
H  H76  1  0.80340000  0.56540000  0.85360000  1.0 0.2588616835
H  H77  1  0.05020000  0.19660000  0.76200000  1.0 0.2588616835
H  H78  1  0.43460000  0.28820000  0.23800000  1.0 0.2588616835
H  H79  1  0.53820000  0.80020000  0.35360000  1.0 0.2588616835
H  H80  1  0.44660000  0.18460000  0.64640000  1.0 0.2588616835
H  H81  1  0.28700000  0.78190000  0.69670000  1.0 0.1282423891
H  H82  1  0.08520000  0.59030000  0.30330000  1.0 0.1282423891
H  H83  1  0.84030000  0.03700000  0.00510000  1.0 0.1282423891
H  H84  1  0.03190000  0.83520000  0.99490000  1.0 0.1282423891
H  H85  1  0.96300000  0.96810000  0.80330000  1.0 0.1282423891
H  H86  1  0.16480000  0.15970000  0.19670000  1.0 0.1282423891
H  H87  1  0.40970000  0.71300000  0.49490000  1.0 0.1282423891
H  H88  1  0.21810000  0.91480000  0.50510000  1.0 0.1282423891
H  H89  1  0.34040000  0.80940000  0.76460000  1.0 0.1382792228
H  H90  1  0.04480000  0.57580000  0.23540000  1.0 0.1382792228
H  H91  1  0.82580000  0.09040000  0.03100000  1.0 0.1382792228
H  H92  1  0.05940000  0.79480000  0.96900000  1.0 0.1382792228
H  H93  1  0.90960000  0.94060000  0.73540000  1.0 0.1382792228
H  H94  1  0.20520000  0.17420000  0.26460000  1.0 0.1382792228
H  H95  1  0.42420000  0.65960000  0.46900000  1.0 0.1382792228
H  H96  1  0.19060000  0.95520000  0.53100000  1.0 0.1382792228
H  H97  1  0.36900000  0.79570000  0.70850000  1.0 0.1282423891
H  H98  1  0.08720000  0.66050000  0.29150000  1.0 0.1282423891
H  H99  1  0.91050000  0.11900000  0.07330000  1.0 0.1282423891
H  H100  1  0.04570000  0.83720000  0.92670000  1.0 0.1282423891
H  H101  1  0.88100000  0.95430000  0.79150000  1.0 0.1282423891
H  H102  1  0.16280000  0.08950000  0.20850000  1.0 0.1282423891
H  H103  1  0.33950000  0.63100000  0.42670000  1.0 0.1282423891
H  H104  1  0.20430000  0.91280000  0.57330000  1.0 0.1282423891
H  H105  1  0.08910000  0.55810000  0.63380000  1.0 0.1382792228
H  H106  1  0.92430000  0.45530000  0.36620000  1.0 0.1382792228
H  H107  1  0.70530000  0.83910000  0.03100000  1.0 0.1382792228
H  H108  1  0.80810000  0.67430000  0.96900000  1.0 0.1382792228
H  H109  1  0.16090000  0.19190000  0.86620000  1.0 0.1382792228
H  H110  1  0.32570000  0.29470000  0.13380000  1.0 0.1382792228
H  H111  1  0.54470000  0.91090000  0.46900000  1.0 0.1382792228
H  H112  1  0.44190000  0.07570000  0.53100000  1.0 0.1382792228
H  H113  1  0.15550000  0.55370000  0.63420000  1.0 0.0790853112
H  H114  1  0.91950000  0.52130000  0.36580000  1.0 0.0790853112
H  H115  1  0.77130000  0.90550000  0.10180000  1.0 0.0790853112
H  H116  1  0.80370000  0.66950000  0.89820000  1.0 0.0790853112
H  H117  1  0.09450000  0.19630000  0.86580000  1.0 0.0790853112
H  H118  1  0.33050000  0.22870000  0.13420000  1.0 0.0790853112
H  H119  1  0.47870000  0.84450000  0.39820000  1.0 0.0790853112
H  H120  1  0.44630000  0.08050000  0.60180000  1.0 0.0790853112
H  H121  1  0.03590000  0.45730000  0.66160000  1.0 0.1567513945
H  H122  1  0.79570000  0.37430000  0.33840000  1.0 0.1567513945
H  H123  1  0.62430000  0.78590000  0.07860000  1.0 0.1567513945
H  H124  1  0.70730000  0.54570000  0.92140000  1.0 0.1567513945
H  H125  1  0.21410000  0.29270000  0.83840000  1.0 0.1567513945
H  H126  1  0.45430000  0.37570000  0.16160000  1.0 0.1567513945
H  H127  1  0.62570000  0.96410000  0.42140000  1.0 0.1567513945
H  H128  1  0.54270000  0.20430000  0.57860000  1.0 0.1567513945
H  H129  1  0.17230000  0.60910000  0.70060000  1.0 0.1282423891
H  H130  1  0.90850000  0.47170000  0.29940000  1.0 0.1282423891
H  H131  1  0.72170000  0.92230000  0.06320000  1.0 0.1282423891
H  H132  1  0.85910000  0.65850000  0.93680000  1.0 0.1282423891
H  H133  1  0.07770000  0.14090000  0.79940000  1.0 0.1282423891
H  H134  1  0.34150000  0.27830000  0.20060000  1.0 0.1282423891
H  H135  1  0.52830000  0.82770000  0.43680000  1.0 0.1282423891
H  H136  1  0.39090000  0.09150000  0.56320000  1.0 0.1282423891
H  H137  1  0.14120000  0.61160000  0.73780000  1.0 0.1382792228
H  H138  1  0.87380000  0.40340000  0.26220000  1.0 0.1382792228
H  H139  1  0.65340000  0.89120000  0.02960000  1.0 0.1382792228
H  H140  1  0.86160000  0.62380000  0.97040000  1.0 0.1382792228
H  H141  1  0.10880000  0.13840000  0.76220000  1.0 0.1382792228
H  H142  1  0.37620000  0.34660000  0.23780000  1.0 0.1382792228
H  H143  1  0.59660000  0.85880000  0.47040000  1.0 0.1382792228
H  H144  1  0.38840000  0.12620000  0.52960000  1.0 0.1382792228
C  C1  1  0.91893000  0.33114000  0.77227000  1.0 0.5570464286
C  C2  1  0.55887000  0.14666000  0.22773000  1.0 0.5570464286
C  C3  1  0.39666000  0.66893000  0.08779000  1.0 0.5570464286
C  C4  1  0.58114000  0.30887000  0.91221000  1.0 0.5570464286
C  C5  1  0.33107000  0.41886000  0.72773000  1.0 0.5570464286
C  C6  1  0.69113000  0.60334000  0.27227000  1.0 0.5570464286
C  C7  1  0.85334000  0.08107000  0.41221000  1.0 0.5570464286
C  C8  1  0.66886000  0.44113000  0.58779000  1.0 0.5570464286
C  C9  1  0.83973000  0.22417000  0.71870000  1.0 -0.0390355687
C  C10  1  0.50547000  0.12103000  0.28130000  1.0 -0.0390355687
C  C11  1  0.37103000  0.58973000  0.11556000  1.0 -0.0390355687
C  C12  1  0.47417000  0.25547000  0.88444000  1.0 -0.0390355687
C  C13  1  0.41027000  0.52583000  0.78130000  1.0 -0.0390355687
C  C14  1  0.74453000  0.62897000  0.21870000  1.0 -0.0390355687
C  C15  1  0.87897000  0.16027000  0.38444000  1.0 -0.0390355687
C  C16  1  0.77583000  0.49453000  0.61556000  1.0 -0.0390355687
C  C17  1  0.71734000  0.13290000  0.68944000  1.0 -0.1130002367
C  C18  1  0.44346000  0.02790000  0.31056000  1.0 -0.1130002367
C  C19  1  0.27790000  0.46734000  0.08444000  1.0 -0.1130002367
C  C20  1  0.38290000  0.19346000  0.91556000  1.0 -0.1130002367
C  C21  1  0.53266000  0.61710000  0.81056000  1.0 -0.1130002367
C  C22  1  0.80654000  0.72210000  0.18944000  1.0 -0.1130002367
C  C23  1  0.97210000  0.28266000  0.41556000  1.0 -0.1130002367
C  C24  1  0.86710000  0.55654000  0.58444000  1.0 -0.1130002367
C  C25  1  0.64860000  0.03640000  0.64040000  1.0 -0.1220375958
C  C26  1  0.39600000  0.00820000  0.35960000  1.0 -0.1220375958
C  C27  1  0.25820000  0.39860000  0.11220000  1.0 -0.1220375958
C  C28  1  0.28640000  0.14600000  0.88780000  1.0 -0.1220375958
C  C29  1  0.60140000  0.71360000  0.85960000  1.0 -0.1220375958
C  C30  1  0.85400000  0.74180000  0.14040000  1.0 -0.1220375958
C  C31  1  0.99180000  0.35140000  0.38780000  1.0 -0.1220375958
C  C32  1  0.96360000  0.60400000  0.61220000  1.0 -0.1220375958
C  C33  1  0.70163000  0.03202000  0.61885000  1.0 -0.1220375958
C  C34  1  0.41317000  0.08278000  0.38115000  1.0 -0.1220375958
C  C35  1  0.33278000  0.45163000  0.16961000  1.0 -0.1220375958
C  C36  1  0.28202000  0.16317000  0.83039000  1.0 -0.1220375958
C  C37  1  0.54837000  0.71798000  0.88115000  1.0 -0.1220375958
C  C38  1  0.83683000  0.66722000  0.11885000  1.0 -0.1220375958
C  C39  1  0.91722000  0.29837000  0.33039000  1.0 -0.1220375958
C  C40  1  0.96798000  0.58683000  0.66961000  1.0 -0.1220375958
C  C41  1  0.82368000  0.12292000  0.64800000  1.0 -0.0200338508
C  C42  1  0.47492000  0.17568000  0.35200000  1.0 -0.0200338508
C  C43  1  0.42568000  0.57368000  0.20076000  1.0 -0.0200338508
C  C44  1  0.37292000  0.22492000  0.79924000  1.0 -0.0200338508
C  C45  1  0.42632000  0.62708000  0.85200000  1.0 -0.0200338508
C  C46  1  0.77508000  0.57432000  0.14800000  1.0 -0.0200338508
C  C47  1  0.82432000  0.17632000  0.29924000  1.0 -0.0200338508
C  C48  1  0.87708000  0.52508000  0.70076000  1.0 -0.0200338508
C  C49  1  0.89157000  0.21768000  0.69825000  1.0 -0.1372542006
C  C50  1  0.51943000  0.19332000  0.30175000  1.0 -0.1372542006
C  C51  1  0.44332000  0.64157000  0.17389000  1.0 -0.1372542006
C  C52  1  0.46768000  0.26943000  0.82611000  1.0 -0.1372542006
C  C53  1  0.35843000  0.53232000  0.80175000  1.0 -0.1372542006
C  C54  1  0.73057000  0.55668000  0.19825000  1.0 -0.1372542006
C  C55  1  0.80668000  0.10843000  0.32611000  1.0 -0.1372542006
C  C56  1  0.78232000  0.48057000  0.67389000  1.0 -0.1372542006
C  C57  1  0.88437000  0.12102000  0.62579000  1.0 0.5709140154
C  C58  1  0.49523000  0.25858000  0.37421000  1.0 0.5709140154
C  C59  1  0.50858000  0.63437000  0.26335000  1.0 0.5709140154
C  C60  1  0.37102000  0.24523000  0.73665000  1.0 0.5709140154
C  C61  1  0.36563000  0.62898000  0.87421000  1.0 0.5709140154
C  C62  1  0.75477000  0.49142000  0.12579000  1.0 0.5709140154
C  C63  1  0.74142000  0.11563000  0.23665000  1.0 0.5709140154
C  C64  1  0.87898000  0.50477000  0.76335000  1.0 0.5709140154
C  C65  1  0.07570000  0.49310000  0.95520000  1.0 0.6093589889
C  C66  1  0.53790000  0.12050000  0.04480000  1.0 0.6093589889
C  C67  1  0.37050000  0.82570000  0.08260000  1.0 0.6093589889
C  C68  1  0.74310000  0.28790000  0.91740000  1.0 0.6093589889
C  C69  1  0.17430000  0.25690000  0.54480000  1.0 0.6093589889
C  C70  1  0.71210000  0.62950000  0.45520000  1.0 0.6093589889
C  C71  1  0.87950000  0.92430000  0.41740000  1.0 0.6093589889
C  C72  1  0.50690000  0.46210000  0.58260000  1.0 0.6093589889
C  C73  1  0.04793000  0.46152000  0.01685000  1.0 -0.0292856316
C  C74  1  0.44467000  0.03108000  0.98315000  1.0 -0.0292856316
C  C75  1  0.28108000  0.79793000  0.08641000  1.0 -0.0292856316
C  C76  1  0.71152000  0.19467000  0.91359000  1.0 -0.0292856316
C  C77  1  0.20207000  0.28848000  0.48315000  1.0 -0.0292856316
C  C78  1  0.80533000  0.71892000  0.51685000  1.0 -0.0292856316
C  C79  1  0.96892000  0.95207000  0.41359000  1.0 -0.0292856316
C  C80  1  0.53848000  0.55533000  0.58641000  1.0 -0.0292856316
C  C81  1  0.08135000  0.43996000  0.04991000  1.0 -0.1013349404
C  C82  1  0.39005000  0.03144000  0.95009000  1.0 -0.1013349404
C  C83  1  0.28144000  0.83135000  0.14139000  1.0 -0.1013349404
C  C84  1  0.68996000  0.14005000  0.85861000  1.0 -0.1013349404
C  C85  1  0.16865000  0.31004000  0.45009000  1.0 -0.1013349404
C  C86  1  0.85995000  0.71856000  0.54991000  1.0 -0.1013349404
C  C87  1  0.96856000  0.91865000  0.35861000  1.0 -0.1013349404
C  C88  1  0.56004000  0.60995000  0.64139000  1.0 -0.1013349404
C  C89  1  0.04481000  0.40245000  0.10486000  1.0 -0.1013349404
C  C90  1  0.29759000  0.93995000  0.89514000  1.0 -0.1013349404
C  C91  1  0.18995000  0.79481000  0.14236000  1.0 -0.1013349404
C  C92  1  0.65245000  0.04759000  0.85764000  1.0 -0.1013349404
C  C93  1  0.20519000  0.34755000  0.39514000  1.0 -0.1013349404
C  C94  1  0.95241000  0.81005000  0.60486000  1.0 -0.1013349404
C  C95  1  0.06005000  0.95519000  0.35764000  1.0 -0.1013349404
C  C96  1  0.59755000  0.70241000  0.64236000  1.0 -0.1013349404
C  C97  1  0.97447000  0.38540000  0.12707000  1.0 -0.1013349404
C  C98  1  0.25833000  0.84740000  0.87293000  1.0 -0.1013349404
C  C99  1  0.09740000  0.72447000  0.08907000  1.0 -0.1013349404
C  C100  1  0.63540000  0.00833000  0.91093000  1.0 -0.1013349404
C  C101  1  0.27553000  0.36460000  0.37293000  1.0 -0.1013349404
C  C102  1  0.99167000  0.90260000  0.62707000  1.0 -0.1013349404
C  C103  1  0.15260000  0.02553000  0.41093000  1.0 -0.1013349404
C  C104  1  0.61460000  0.74167000  0.58907000  1.0 -0.1013349404
C  C105  1  0.94358000  0.40976000  0.09474000  1.0 -0.0292856316
C  C106  1  0.31502000  0.84884000  0.90526000  1.0 -0.0292856316
C  C107  1  0.09884000  0.69358000  0.03382000  1.0 -0.0292856316
C  C108  1  0.65976000  0.06502000  0.96618000  1.0 -0.0292856316
C  C109  1  0.30642000  0.34024000  0.40526000  1.0 -0.0292856316
C  C110  1  0.93498000  0.90116000  0.59474000  1.0 -0.0292856316
C  C111  1  0.15116000  0.05642000  0.46618000  1.0 -0.0292856316
C  C112  1  0.59024000  0.68498000  0.53382000  1.0 -0.0292856316
C  C113  1  0.98075000  0.44780000  0.04015000  1.0 -0.1130002367
C  C114  1  0.40765000  0.94060000  0.95985000  1.0 -0.1130002367
C  C115  1  0.19060000  0.73075000  0.03295000  1.0 -0.1130002367
C  C116  1  0.69780000  0.15765000  0.96705000  1.0 -0.1130002367
C  C117  1  0.26925000  0.30220000  0.45985000  1.0 -0.1130002367
C  C118  1  0.84235000  0.80940000  0.54015000  1.0 -0.1130002367
C  C119  1  0.05940000  0.01925000  0.46705000  1.0 -0.1130002367
C  C120  1  0.55220000  0.59235000  0.53295000  1.0 -0.1130002367
C  C121  1  0.86359000  0.38743000  0.11482000  1.0 0.5570464286
C  C122  1  0.27261000  0.74877000  0.88518000  1.0 0.5570464286
C  C123  1  0.99877000  0.61359000  0.97616000  1.0 0.5570464286
C  C124  1  0.63743000  0.02261000  0.02384000  1.0 0.5570464286
C  C125  1  0.38641000  0.36257000  0.38518000  1.0 0.5570464286
C  C126  1  0.97739000  0.00123000  0.61482000  1.0 0.5570464286
C  C127  1  0.25123000  0.13641000  0.52384000  1.0 0.5570464286
C  C128  1  0.61257000  0.72739000  0.47616000  1.0 0.5570464286
C  C129  1  0.30700000  0.76580000  0.72220000  1.0 -0.5989186558
C  C130  1  0.04360000  0.58480000  0.27780000  1.0 -0.5989186558
C  C131  1  0.83480000  0.05700000  0.04120000  1.0 -0.5989186558
C  C132  1  0.01580000  0.79360000  0.95880000  1.0 -0.5946802048
C  C133  1  0.94300000  0.98420000  0.77780000  1.0 -0.5989186558
C  C134  1  0.20640000  0.16520000  0.22220000  1.0 -0.5989186558
C  C135  1  0.41520000  0.69300000  0.45880000  1.0 -0.5989186558
C  C136  1  0.23420000  0.95640000  0.54120000  1.0 -0.5946802048
C  C137  1  0.19410000  0.63200000  0.71730000  1.0 0.324840978
C  C138  1  0.91470000  0.47680000  0.28270000  1.0 0.3254394981
C  C139  1  0.72680000  0.94410000  0.06210000  1.0 0.3254394981
C  C140  1  0.88200000  0.66470000  0.93790000  1.0 0.324840978
C  C141  1  0.05590000  0.11800000  0.78270000  1.0 0.324840978
C  C142  1  0.33530000  0.27320000  0.21730000  1.0 0.324840978
C  C143  1  0.52320000  0.80590000  0.43790000  1.0 0.3254394981
C  C144  1  0.36800000  0.08530000  0.56210000  1.0 0.324840978
C  C145  1  0.11150000  0.54260000  0.65650000  1.0 -0.1965718565
C  C146  1  0.88610000  0.45500000  0.34350000  1.0 -0.1965718565
C  C147  1  0.70500000  0.86150000  0.06890000  1.0 -0.1965718565
C  C148  1  0.79260000  0.63610000  0.93110000  1.0 -0.1965718565
C  C149  1  0.13850000  0.20740000  0.84350000  1.0 -0.1965718565
C  C150  1  0.36390000  0.29500000  0.15650000  1.0 -0.1965718565
C  C151  1  0.54500000  0.88850000  0.43110000  1.0 -0.1965718565
C  C152  1  0.45740000  0.11390000  0.56890000  1.0 -0.1965718565
O  O1  1  0.01111000  0.38560000  0.80511000  1.0 -0.5404876468
O  O2  1  0.58049000  0.20600000  0.19489000  1.0 -0.5404876468
O  O3  1  0.45600000  0.76111000  0.12551000  1.0 -0.5404876468
O  O4  1  0.63560000  0.33049000  0.87449000  1.0 -0.5404876468
O  O5  1  0.23889000  0.36440000  0.69489000  1.0 -0.5404876468
O  O6  1  0.66951000  0.54400000  0.30511000  1.0 -0.5404876468
O  O7  1  0.79400000  0.98889000  0.37449000  1.0 -0.5404876468
O  O8  1  0.61440000  0.41951000  0.62551000  1.0 -0.5404876468
O  O9  1  0.88845000  0.35779000  0.78104000  1.0 -0.5500999662
O  O10  1  0.57675000  0.10741000  0.21896000  1.0 -0.5500999662
O  O11  1  0.35741000  0.63845000  0.03066000  1.0 -0.5500999662
O  O12  1  0.60779000  0.32675000  0.96934000  1.0 -0.5500999662
O  O13  1  0.36155000  0.39221000  0.71896000  1.0 -0.5500999662
O  O14  1  0.67325000  0.64259000  0.28104000  1.0 -0.5500999662
O  O15  1  0.89259000  0.11155000  0.46934000  1.0 -0.5500999662
O  O16  1  0.64221000  0.42325000  0.53066000  1.0 -0.5500999662
O  O17  1  0.99573000  0.20702000  0.65495000  1.0 -0.5500999662
O  O18  1  0.55207000  0.34078000  0.34505000  1.0 -0.5500999662
O  O19  1  0.59078000  0.74573000  0.28871000  1.0 -0.5500999662
O  O20  1  0.45702000  0.30207000  0.71129000  1.0 -0.5500999662
O  O21  1  0.25427000  0.54298000  0.84505000  1.0 -0.5500999662
O  O22  1  0.69793000  0.40922000  0.15495000  1.0 -0.5500999662
O  O23  1  0.65922000  0.00427000  0.21129000  1.0 -0.5500999662
O  O24  1  0.79298000  0.44793000  0.78871000  1.0 -0.5500999662
O  O25  1  0.82028000  0.03385000  0.58013000  1.0 -0.5655488146
O  O26  1  0.45372000  0.24015000  0.41987000  1.0 -0.5655488146
O  O27  1  0.49015000  0.57028000  0.28643000  1.0 -0.5655488146
O  O28  1  0.28385000  0.20372000  0.71357000  1.0 -0.5655488146
O  O29  1  0.42972000  0.71615000  0.91987000  1.0 -0.5655488146
O  O30  1  0.79628000  0.50985000  0.08013000  1.0 -0.5655488146
O  O31  1  0.75985000  0.17972000  0.21357000  1.0 -0.5655488146
O  O32  1  0.96615000  0.54628000  0.78643000  1.0 -0.5655488146
O  O33  1  0.16254000  0.53856000  0.93830000  1.0 -0.5989186558
O  O34  1  0.60026000  0.22424000  0.06170000  1.0 -0.5989186558
O  O35  1  0.47424000  0.91254000  0.12398000  1.0 -0.5989186558
O  O36  1  0.78856000  0.35026000  0.87602000  1.0 -0.5989186558
O  O37  1  0.08746000  0.21144000  0.56170000  1.0 -0.5989186558
O  O38  1  0.64974000  0.52576000  0.43830000  1.0 -0.5989186558
O  O39  1  0.77576000  0.83746000  0.37602000  1.0 -0.5989186558
O  O40  1  0.46144000  0.39974000  0.62398000  1.0 -0.5989186558
O  O41  1  0.00704000  0.46995000  0.92279000  1.0 -0.5643922237
O  O42  1  0.54716000  0.08425000  0.07721000  1.0 -0.5643922237
O  O43  1  0.33425000  0.75704000  0.03709000  1.0 -0.5643922237
O  O44  1  0.71995000  0.29716000  0.96291000  1.0 -0.5643922237
O  O45  1  0.24296000  0.28005000  0.57721000  1.0 -0.5643922237
O  O46  1  0.70284000  0.66575000  0.42279000  1.0 -0.5643922237
O  O47  1  0.91575000  0.99296000  0.46291000  1.0 -0.5643922237
O  O48  1  0.53005000  0.45284000  0.53709000  1.0 -0.5643922237
O  O49  1  0.86053000  0.43666000  0.09599000  1.0 -0.5500999662
O  O50  1  0.34067000  0.76454000  0.90401000  1.0 -0.5500999662
O  O51  1  0.01454000  0.61053000  0.92387000  1.0 -0.5500999662
O  O52  1  0.68666000  0.09067000  0.07613000  1.0 -0.5500999662
O  O53  1  0.38947000  0.31334000  0.40401000  1.0 -0.5500999662
O  O54  1  0.90933000  0.98546000  0.59599000  1.0 -0.5500999662
O  O55  1  0.23546000  0.13947000  0.57613000  1.0 -0.5500999662
O  O56  1  0.56334000  0.65933000  0.42387000  1.0 -0.5500999662
O  O57  1  0.79651000  0.31682000  0.15273000  1.0 -0.5989186558
O  O58  1  0.16409000  0.64378000  0.84727000  1.0 -0.5989186558
O  O59  1  0.89378000  0.54651000  0.97969000  1.0 -0.5989186558
O  O60  1  0.56682000  0.91409000  0.02031000  1.0 -0.5989186558
O  O61  1  0.45349000  0.43318000  0.34727000  1.0 -0.5989186558
O  O62  1  0.08591000  0.10622000  0.65273000  1.0 -0.5989186558
O  O63  1  0.35622000  0.20349000  0.52031000  1.0 -0.5989186558
O  O64  1  0.68318000  0.83591000  0.47969000  1.0 -0.5989186558
O  O65  1  0.23006000  0.61167000  0.75953000  1.0 -0.46705465
O  O66  1  0.85214000  0.47053000  0.24047000  1.0 -0.46705465
O  O67  1  0.72053000  0.98006000  0.11839000  1.0 -0.46705465
O  O68  1  0.86167000  0.60214000  0.88161000  1.0 -0.46705465
O  O69  1  0.01994000  0.13833000  0.74047000  1.0 -0.46705465
O  O70  1  0.39786000  0.27947000  0.25953000  1.0 -0.46705465
O  O71  1  0.52947000  0.76994000  0.38161000  1.0 -0.46705465
O  O72  1  0.38833000  0.14786000  0.61839000  1.0 -0.46705465
O  O73  1  0.09720000  0.55680000  0.69200000  1.0 -0.1639811766
O  O74  1  0.86480000  0.40520000  0.30800000  1.0 -0.1639811766
O  O75  1  0.65520000  0.84720000  0.04040000  1.0 -0.1639811766
O  O76  1  0.80680000  0.61480000  0.95960000  1.0 -0.1639811766
O  O77  1  0.15280000  0.19320000  0.80800000  1.0 -0.1656513286
O  O78  1  0.38520000  0.34480000  0.19200000  1.0 -0.1639811766
O  O79  1  0.59480000  0.90280000  0.45960000  1.0 -0.1639811766
O  O80  1  0.44320000  0.13520000  0.54040000  1.0 -0.1656513286
