# DDEC6 charges by PACMAN v1.1 (https://github.com/mtap-research/PACMAN-charge/)
data_XADGAM_FSR_pacman
_symmetry_space_group_name_H-M   'P 1'
_cell_length_a   10.98380000
_cell_length_b   14.43360000
_cell_length_c   16.12290000
_cell_angle_alpha   90.00000000
_cell_angle_beta   92.86710000
_cell_angle_gamma   90.00000000
_symmetry_Int_Tables_number   1
_chemical_formula_structural   ZnH14C24(NO2)2
_chemical_formula_sum   'Zn4 H56 C96 N8 O16'
_cell_volume   2552.85689787
_cell_formula_units_Z   4
loop_
 _symmetry_equiv_pos_site_id
 _symmetry_equiv_pos_as_xyz
  1  'x, y, z'
loop_
 _atom_site_type_symbol
 _atom_site_label
 _atom_site_symmetry_multiplicity
 _atom_site_fract_x
 _atom_site_fract_y
 _atom_site_fract_z
 _atom_site_occupancy
 _atom_site_charge
Zn  Zn1  1  0.03311000  0.12474000  0.03416000  1.0 0.7503664481
Zn  Zn2  1  0.52363000  0.64760000  0.41117000  1.0 0.7345571505
Zn  Zn3  1  0.96689000  0.62474000  0.96584000  1.0 0.7503664481
Zn  Zn4  1  0.47637000  0.14760000  0.58883000  1.0 0.7345571505
H  H1  1  0.30450000  0.39920000  0.08060000  1.0 0.1279174211
H  H2  1  0.41260000  0.50030000  0.16740000  1.0 0.111567907
H  H3  1  0.27730000  0.43500000  0.42750000  1.0 0.111567907
H  H4  1  0.14810000  0.32780000  0.48370000  1.0 0.111567907
H  H5  1  0.04710000  0.21820000  0.39420000  1.0 0.1025305229
H  H6  1  0.06640000  0.22520000  0.25660000  1.0 0.1201943338
H  H7  1  0.62360000  0.76400000  0.16340000  1.0 0.1279174211
H  H8  1  0.72620000  0.85620000  0.07080000  1.0 0.1201943338
H  H9  1  0.88980000  0.09680000  0.23590000  1.0 0.1279174211
H  H10  1  0.87760000  0.13240000  0.37450000  1.0 0.1025305229
H  H11  1  0.78340000  0.03580000  0.46350000  1.0 0.111567907
H  H12  1  0.69510000  0.90180000  0.41740000  1.0 0.111567907
H  H13  1  0.49060000  0.48450000  0.52270000  1.0 0.111567907
H  H14  1  0.58260000  0.40720000  0.63270000  1.0 0.1388738351
H  H15  1  0.89030000  0.53620000  0.58680000  1.0 0.1388738351
H  H16  1  0.78770000  0.61730000  0.48220000  1.0 0.1201943338
H  H17  1  0.71890000  0.17900000  0.79560000  1.0 0.1485325979
H  H18  1  0.81090000  0.10320000  0.90580000  1.0 0.1201943338
H  H19  1  0.02890000  0.30920000  0.95430000  1.0 0.111567907
H  H20  1  0.94290000  0.39740000  0.84840000  1.0 0.1388738351
H  H21  1  0.58400000  0.74810000  0.57640000  1.0 0.111567907
H  H22  1  0.48670000  0.82360000  0.68010000  1.0 0.1279174211
H  H23  1  0.17200000  0.79390000  0.54670000  1.0 0.1279174211
H  H24  1  0.26960000  0.71780000  0.44840000  1.0 0.1201943338
H  H25  1  0.37470000  0.03370000  0.85980000  1.0 0.1388738351
H  H26  1  0.27440000  0.11850000  0.95660000  1.0 0.1201943338
H  H27  1  0.98590000  0.95680000  0.92350000  1.0 0.1201943338
H  H28  1  0.07380000  0.88600000  0.81200000  1.0 0.1388738351
H  H29  1  0.69550000  0.89920000  0.91940000  1.0 0.1279174211
H  H30  1  0.58740000  0.00030000  0.83260000  1.0 0.111567907
H  H31  1  0.72270000  0.93500000  0.57250000  1.0 0.111567907
H  H32  1  0.85190000  0.82780000  0.51630000  1.0 0.111567907
H  H33  1  0.95290000  0.71820000  0.60580000  1.0 0.1025305229
H  H34  1  0.93360000  0.72520000  0.74340000  1.0 0.1201943338
H  H35  1  0.37640000  0.26400000  0.83660000  1.0 0.1279174211
H  H36  1  0.27380000  0.35620000  0.92920000  1.0 0.1201943338
H  H37  1  0.11020000  0.59680000  0.76410000  1.0 0.1279174211
H  H38  1  0.12240000  0.63240000  0.62550000  1.0 0.1025305229
H  H39  1  0.21660000  0.53580000  0.53650000  1.0 0.111567907
H  H40  1  0.30490000  0.40180000  0.58260000  1.0 0.111567907
H  H41  1  0.50940000  0.98450000  0.47730000  1.0 0.111567907
H  H42  1  0.41740000  0.90720000  0.36730000  1.0 0.1388738351
H  H43  1  0.10970000  0.03620000  0.41320000  1.0 0.1388738351
H  H44  1  0.21230000  0.11730000  0.51780000  1.0 0.1201943338
H  H45  1  0.28110000  0.67900000  0.20440000  1.0 0.1485325979
H  H46  1  0.18910000  0.60320000  0.09420000  1.0 0.1201943338
H  H47  1  0.97110000  0.80920000  0.04570000  1.0 0.111567907
H  H48  1  0.05710000  0.89740000  0.15160000  1.0 0.1388738351
H  H49  1  0.41600000  0.24810000  0.42360000  1.0 0.111567907
H  H50  1  0.51330000  0.32360000  0.31990000  1.0 0.1279174211
H  H51  1  0.82800000  0.29390000  0.45330000  1.0 0.1279174211
H  H52  1  0.73040000  0.21780000  0.55160000  1.0 0.1201943338
H  H53  1  0.62530000  0.53370000  0.14020000  1.0 0.1388738351
H  H54  1  0.72560000  0.61850000  0.04340000  1.0 0.1201943338
H  H55  1  0.01410000  0.45680000  0.07650000  1.0 0.1201943338
H  H56  1  0.92620000  0.38600000  0.18800000  1.0 0.1388738351
C  C1  1  0.15850000  0.26140000  0.10950000  1.0 0.5524207937
C  C2  1  0.21790000  0.33170000  0.16630000  1.0 -0.0667891366
C  C3  1  0.29390000  0.39640000  0.13740000  1.0 -0.0798405831
C  C4  1  0.35750000  0.45930000  0.18940000  1.0 -0.1421870627
C  C5  1  0.33850000  0.46040000  0.27360000  1.0 -0.0490635888
C  C6  1  0.23650000  0.39220000  0.39310000  1.0 -0.1421870627
C  C7  1  0.15960000  0.32840000  0.42690000  1.0 -0.1111667105
C  C8  1  0.09750000  0.26280000  0.37230000  1.0 -0.1111667105
C  C9  1  0.11150000  0.26550000  0.29100000  1.0 -0.1303714414
C  C10  1  0.19460000  0.32890000  0.25470000  1.0 0.0583707715
C  C11  1  0.25390000  0.39330000  0.30780000  1.0 0.0438834323
C  C12  1  0.41150000  0.53060000  0.32680000  1.0 0.5316958415
C  C13  1  0.61160000  0.76870000  0.32370000  1.0 0.5524207937
C  C14  1  0.67280000  0.83420000  0.26550000  1.0 -0.0490635888
C  C15  1  0.66780000  0.81510000  0.18320000  1.0 -0.1174950836
C  C16  1  0.72910000  0.87170000  0.12690000  1.0 -0.1111667105
C  C17  1  0.79300000  0.94960000  0.15350000  1.0 -0.0798405831
C  C18  1  0.84950000  0.05700000  0.27070000  1.0 -0.1303714414
C  C19  1  0.84260000  0.07780000  0.35410000  1.0 -0.1111667105
C  C20  1  0.78550000  0.02000000  0.40760000  1.0 -0.0954559309
C  C21  1  0.73230000  0.94040000  0.38000000  1.0 -0.1486557437
C  C22  1  0.73270000  0.91490000  0.29550000  1.0 0.0583707715
C  C23  1  0.79480000  0.97510000  0.23850000  1.0 0.068850552
C  C24  1  0.85710000  0.00100000  0.08730000  1.0 0.5447857963
C  C25  1  0.57140000  0.49850000  0.53760000  1.0 0.068850552
C  C26  1  0.62730000  0.44920000  0.60270000  1.0 -0.1596886975
C  C27  1  0.74350000  0.46190000  0.62200000  1.0 0.1608275858
C  C28  1  0.80740000  0.52640000  0.57570000  1.0 -0.1967377265
C  C29  1  0.74460000  0.57510000  0.51300000  1.0 0.068850552
C  C30  1  0.81570000  0.41610000  0.69140000  1.0 -0.1174950836
C  C31  1  0.76580000  0.34270000  0.73100000  1.0 -0.0122509686
C  C32  1  0.82490000  0.29670000  0.80420000  1.0 0.1791283625
C  C33  1  0.78300000  0.20670000  0.82610000  1.0 -0.1655818684
C  C34  1  0.83830000  0.16210000  0.89230000  1.0 0.0486561606
C  C35  1  0.96590000  0.28320000  0.92140000  1.0 0.111567907
C  C36  1  0.91650000  0.33710000  0.85670000  1.0 -0.1967377265
C  C37  1  0.50030000  0.75750000  0.57070000  1.0 0.068850552
C  C38  1  0.44170000  0.80220000  0.63360000  1.0 -0.1782164288
C  C39  1  0.31330000  0.81540000  0.62730000  1.0 0.1608275858
C  C40  1  0.25550000  0.78410000  0.55470000  1.0 -0.1869044615
C  C41  1  0.31430000  0.73990000  0.49480000  1.0 0.068850552
C  C42  1  0.24450000  0.85360000  0.69360000  1.0 -0.1421870627
C  C43  1  0.30180000  0.90380000  0.75500000  1.0 0.0199889864
C  C44  1  0.23150000  0.95110000  0.82150000  1.0 0.1608275858
C  C45  1  0.29360000  0.02070000  0.86910000  1.0 -0.1782164288
C  C46  1  0.23460000  0.06960000  0.92920000  1.0 0.0866473379
C  C47  1  0.06220000  0.97580000  0.90770000  1.0 0.068850552
C  C48  1  0.11740000  0.93100000  0.84210000  1.0 -0.1596886975
C  C49  1  0.84150000  0.76140000  0.89050000  1.0 0.5524207937
C  C50  1  0.78210000  0.83170000  0.83370000  1.0 -0.0667891366
C  C51  1  0.70610000  0.89640000  0.86260000  1.0 -0.0798405831
C  C52  1  0.64250000  0.95930000  0.81060000  1.0 -0.1421870627
C  C53  1  0.66150000  0.96040000  0.72640000  1.0 -0.0490635888
C  C54  1  0.76350000  0.89220000  0.60690000  1.0 -0.1421870627
C  C55  1  0.84040000  0.82840000  0.57310000  1.0 -0.1111667105
C  C56  1  0.90250000  0.76280000  0.62770000  1.0 -0.1111667105
C  C57  1  0.88850000  0.76550000  0.70900000  1.0 -0.1303714414
C  C58  1  0.80540000  0.82890000  0.74530000  1.0 0.0583707715
C  C59  1  0.74610000  0.89330000  0.69220000  1.0 0.0438834323
C  C60  1  0.58850000  0.03060000  0.67320000  1.0 0.5316958415
C  C61  1  0.38840000  0.26870000  0.67630000  1.0 0.5524207937
C  C62  1  0.32720000  0.33420000  0.73450000  1.0 -0.0490635888
C  C63  1  0.33220000  0.31510000  0.81680000  1.0 -0.1174950836
C  C64  1  0.27090000  0.37170000  0.87310000  1.0 -0.1111667105
C  C65  1  0.20700000  0.44960000  0.84650000  1.0 -0.0798405831
C  C66  1  0.15050000  0.55700000  0.72930000  1.0 -0.1303714414
C  C67  1  0.15740000  0.57780000  0.64590000  1.0 -0.1174950836
C  C68  1  0.21450000  0.52000000  0.59240000  1.0 -0.0954559309
C  C69  1  0.26770000  0.44040000  0.62000000  1.0 -0.1486557437
C  C70  1  0.26730000  0.41490000  0.70450000  1.0 0.0583707715
C  C71  1  0.20520000  0.47510000  0.76150000  1.0 0.068850552
C  C72  1  0.14290000  0.50100000  0.91270000  1.0 0.5524207937
C  C73  1  0.42860000  0.99850000  0.46240000  1.0 0.068850552
C  C74  1  0.37270000  0.94920000  0.39730000  1.0 -0.1596886975
C  C75  1  0.25650000  0.96190000  0.37800000  1.0 0.1608275858
C  C76  1  0.19260000  0.02640000  0.42430000  1.0 -0.1967377265
C  C77  1  0.25540000  0.07510000  0.48700000  1.0 0.068850552
C  C78  1  0.18430000  0.91610000  0.30860000  1.0 -0.1174950836
C  C79  1  0.23420000  0.84270000  0.26900000  1.0 -0.0122509686
C  C80  1  0.17510000  0.79670000  0.19580000  1.0 0.1791283625
C  C81  1  0.21700000  0.70670000  0.17390000  1.0 -0.1655818684
C  C82  1  0.16170000  0.66210000  0.10770000  1.0 0.0486561606
C  C83  1  0.03410000  0.78320000  0.07860000  1.0 0.111567907
C  C84  1  0.08350000  0.83710000  0.14330000  1.0 -0.1967377265
C  C85  1  0.49970000  0.25750000  0.42930000  1.0 0.068850552
C  C86  1  0.55830000  0.30220000  0.36640000  1.0 -0.1782164288
C  C87  1  0.68670000  0.31540000  0.37270000  1.0 0.1608275858
C  C88  1  0.74450000  0.28410000  0.44530000  1.0 -0.1869044615
C  C89  1  0.68570000  0.23990000  0.50520000  1.0 0.068850552
C  C90  1  0.75550000  0.35360000  0.30640000  1.0 -0.1421870627
C  C91  1  0.69820000  0.40380000  0.24500000  1.0 0.0199889864
C  C92  1  0.76850000  0.45110000  0.17850000  1.0 0.1608275858
C  C93  1  0.70640000  0.52070000  0.13090000  1.0 -0.1782164288
C  C94  1  0.76540000  0.56960000  0.07080000  1.0 0.0866473379
C  C95  1  0.93780000  0.47580000  0.09230000  1.0 0.068850552
C  C96  1  0.88260000  0.43100000  0.15790000  1.0 -0.1596886975
N  N1  1  0.62540000  0.56470000  0.49470000  1.0 -0.2284188506
N  N2  1  0.93230000  0.20030000  0.93990000  1.0 -0.2284188506
N  N3  1  0.43800000  0.72670000  0.50030000  1.0 -0.2562479091
N  N4  1  0.12030000  0.04730000  0.94850000  1.0 -0.2423208071
N  N5  1  0.37460000  0.06470000  0.50530000  1.0 -0.2284188506
N  N6  1  0.06770000  0.70030000  0.06010000  1.0 -0.2284188506
N  N7  1  0.56200000  0.22670000  0.49970000  1.0 -0.2562479091
N  N8  1  0.87970000  0.54730000  0.05150000  1.0 -0.2423208071
O  O1  1  0.04830000  0.23950000  0.11660000  1.0 -0.5360468043
O  O2  1  0.21800000  0.23650000  0.04850000  1.0 -0.5688664926
O  O3  1  0.36400000  0.56910000  0.38630000  1.0 -0.5294913861
O  O4  1  0.51670000  0.54890000  0.30660000  1.0 -0.5124896479
O  O5  1  0.49670000  0.75590000  0.31140000  1.0 -0.5470870448
O  O6  1  0.67140000  0.73140000  0.38040000  1.0 -0.5124896479
O  O7  1  0.82680000  0.99100000  0.01540000  1.0 -0.5294913861
O  O8  1  0.94580000  0.05220000  0.11300000  1.0 -0.5294913861
O  O9  1  0.95170000  0.73950000  0.88340000  1.0 -0.5360468043
O  O10  1  0.78200000  0.73650000  0.95150000  1.0 -0.5688664926
O  O11  1  0.63600000  0.06910000  0.61370000  1.0 -0.5294913861
O  O12  1  0.48330000  0.04890000  0.69340000  1.0 -0.5124896479
O  O13  1  0.50330000  0.25590000  0.68860000  1.0 -0.5470870448
O  O14  1  0.32860000  0.23140000  0.61960000  1.0 -0.5124896479
O  O15  1  0.17320000  0.49100000  0.98460000  1.0 -0.5294913861
O  O16  1  0.05420000  0.55220000  0.88700000  1.0 -0.5294913861
