# DDEC6 charges by PACMAN v1.1 (https://github.com/mtap-research/PACMAN-charge/)
data_XAHNON_ASR_pacman
_symmetry_space_group_name_H-M   'P 1'
_cell_length_a   19.79970000
_cell_length_b   19.79970000
_cell_length_c   14.24310000
_cell_angle_alpha   81.07530000
_cell_angle_beta   98.92470000
_cell_angle_gamma   138.07300000
_symmetry_Int_Tables_number   1
_chemical_formula_structural   NdH21C35NO6
_chemical_formula_sum   'Nd4 H84 C140 N4 O24'
_cell_volume   3679.08449391
_cell_formula_units_Z   4
loop_
 _symmetry_equiv_pos_site_id
 _symmetry_equiv_pos_as_xyz
  1  'x, y, z'
loop_
 _atom_site_type_symbol
 _atom_site_label
 _atom_site_symmetry_multiplicity
 _atom_site_fract_x
 _atom_site_fract_y
 _atom_site_fract_z
 _atom_site_occupancy
 _atom_site_charge
Nd  Nd1  1  0.09573000  0.48855000  0.54786000  1.0 2.0580185614
Nd  Nd2  1  0.48855000  0.09573000  0.95214000  1.0 2.0580185614
Nd  Nd3  1  0.90427000  0.51145000  0.45214000  1.0 2.0580185614
Nd  Nd4  1  0.51145000  0.90427000  0.04786000  1.0 2.0580185614
H  H1  1  0.24188000  0.40450000  0.41979000  1.0 0.0814784008
H  H2  1  0.24541000  0.30043000  0.37186000  1.0 0.0898647615
H  H3  1  0.96170000  0.05528000  0.45285000  1.0 0.0814784008
H  H4  1  0.95816000  0.15936000  0.50077000  1.0 0.0605612956
H  H5  1  0.96273000  0.97651000  0.37239000  1.0 0.0678291283
H  H6  1  0.97565000  0.87567000  0.34144000  1.0 0.0814784008
H  H7  1  0.27380000  0.10958000  0.36081000  1.0 0.0898647615
H  H8  1  0.26209000  0.21157000  0.38853000  1.0 0.0898647615
H  H9  1  0.07842000  0.85112000  0.33264000  1.0 0.1001870714
H  H10  1  0.13189000  0.77529000  0.40076000  1.0 0.1296627782
H  H11  1  0.29472000  0.76768000  0.28354000  1.0 0.1360741257
H  H12  1  0.31967000  0.98873000  0.19567000  1.0 0.1224482469
H  H13  1  0.27665000  0.44823000  0.42159000  1.0 0.0814784008
H  H14  1  0.30897000  0.36657000  0.37800000  1.0 0.0898647615
H  H15  1  0.02295000  0.09731000  0.42791000  1.0 0.0814784008
H  H16  1  0.99064000  0.17896000  0.47150000  1.0 0.0814784008
H  H17  1  0.05366000  0.03650000  0.36304000  1.0 0.0898647615
H  H18  1  0.08197000  0.95587000  0.32691000  1.0 0.1001870714
H  H19  1  0.37791000  0.21125000  0.35103000  1.0 0.0898647615
H  H20  1  0.34619000  0.29447000  0.38678000  1.0 0.0678291283
H  H21  1  0.31617000  0.06497000  0.29217000  1.0 0.1001870714
H  H22  1  0.40450000  0.24188000  0.08021000  1.0 0.0814784008
H  H23  1  0.30043000  0.24541000  0.12814000  1.0 0.0898647615
H  H24  1  0.05528000  0.96170000  0.04715000  1.0 0.0814784008
H  H25  1  0.15936000  0.95816000  0.99923000  1.0 0.0605612956
H  H26  1  0.97651000  0.96273000  0.12761000  1.0 0.0678291283
H  H27  1  0.87567000  0.97565000  0.15856000  1.0 0.0814784008
H  H28  1  0.10958000  0.27380000  0.13919000  1.0 0.0898647615
H  H29  1  0.21157000  0.26209000  0.11147000  1.0 0.0898647615
H  H30  1  0.85112000  0.07842000  0.16736000  1.0 0.1001870714
H  H31  1  0.77529000  0.13189000  0.09924000  1.0 0.1296627782
H  H32  1  0.76768000  0.29472000  0.21646000  1.0 0.1360741257
H  H33  1  0.98873000  0.31967000  0.30433000  1.0 0.1224482469
H  H34  1  0.44823000  0.27665000  0.07841000  1.0 0.0814784008
H  H35  1  0.36657000  0.30897000  0.12200000  1.0 0.0898647615
H  H36  1  0.09731000  0.02295000  0.07209000  1.0 0.0814784008
H  H37  1  0.17896000  0.99064000  0.02850000  1.0 0.0814784008
H  H38  1  0.03650000  0.05366000  0.13696000  1.0 0.0898647615
H  H39  1  0.95587000  0.08197000  0.17309000  1.0 0.1001870714
H  H40  1  0.21125000  0.37791000  0.14897000  1.0 0.0898647615
H  H41  1  0.29447000  0.34619000  0.11322000  1.0 0.0678291283
H  H42  1  0.06497000  0.31617000  0.20783000  1.0 0.1001870714
H  H43  1  0.75812000  0.59550000  0.58021000  1.0 0.0814784008
H  H44  1  0.75459000  0.69957000  0.62814000  1.0 0.0898647615
H  H45  1  0.03830000  0.94472000  0.54715000  1.0 0.0814784008
H  H46  1  0.04184000  0.84064000  0.49923000  1.0 0.0605612956
H  H47  1  0.03727000  0.02349000  0.62761000  1.0 0.0678291283
H  H48  1  0.02435000  0.12433000  0.65856000  1.0 0.0814784008
H  H49  1  0.72620000  0.89042000  0.63919000  1.0 0.0898647615
H  H50  1  0.73791000  0.78843000  0.61147000  1.0 0.0898647615
H  H51  1  0.92158000  0.14888000  0.66736000  1.0 0.1001870714
H  H52  1  0.86811000  0.22471000  0.59924000  1.0 0.1296627782
H  H53  1  0.70528000  0.23232000  0.71646000  1.0 0.1360741257
H  H54  1  0.68033000  0.01127000  0.80433000  1.0 0.1224482469
H  H55  1  0.72335000  0.55177000  0.57841000  1.0 0.0814784008
H  H56  1  0.69103000  0.63343000  0.62200000  1.0 0.0898647615
H  H57  1  0.97705000  0.90269000  0.57209000  1.0 0.0814784008
H  H58  1  0.00936000  0.82104000  0.52850000  1.0 0.0814784008
H  H59  1  0.94634000  0.96350000  0.63696000  1.0 0.0898647615
H  H60  1  0.91803000  0.04413000  0.67309000  1.0 0.1001870714
H  H61  1  0.62209000  0.78875000  0.64897000  1.0 0.0898647615
H  H62  1  0.65381000  0.70553000  0.61322000  1.0 0.0678291283
H  H63  1  0.68383000  0.93503000  0.70783000  1.0 0.1001870714
H  H64  1  0.59550000  0.75812000  0.91979000  1.0 0.0814784008
H  H65  1  0.69957000  0.75459000  0.87186000  1.0 0.0898647615
H  H66  1  0.94472000  0.03830000  0.95285000  1.0 0.0814784008
H  H67  1  0.84064000  0.04184000  0.00077000  1.0 0.0605612956
H  H68  1  0.02349000  0.03727000  0.87239000  1.0 0.0678291283
H  H69  1  0.12433000  0.02435000  0.84144000  1.0 0.0814784008
H  H70  1  0.89042000  0.72620000  0.86081000  1.0 0.0898647615
H  H71  1  0.78843000  0.73791000  0.88853000  1.0 0.0898647615
H  H72  1  0.14888000  0.92158000  0.83264000  1.0 0.1001870714
H  H73  1  0.22471000  0.86811000  0.90076000  1.0 0.1296627782
H  H74  1  0.23232000  0.70528000  0.78354000  1.0 0.1360741257
H  H75  1  0.01127000  0.68033000  0.69567000  1.0 0.1224482469
H  H76  1  0.55177000  0.72335000  0.92159000  1.0 0.0814784008
H  H77  1  0.63343000  0.69103000  0.87800000  1.0 0.0898647615
H  H78  1  0.90269000  0.97705000  0.92791000  1.0 0.0814784008
H  H79  1  0.82104000  0.00936000  0.97150000  1.0 0.0814784008
H  H80  1  0.96350000  0.94634000  0.86304000  1.0 0.0898647615
H  H81  1  0.04413000  0.91803000  0.82691000  1.0 0.1001870714
H  H82  1  0.78875000  0.62209000  0.85103000  1.0 0.0898647615
H  H83  1  0.70553000  0.65381000  0.88678000  1.0 0.0678291283
H  H84  1  0.93503000  0.68383000  0.79217000  1.0 0.1001870714
C  C1  1  0.10470000  0.36330000  0.49620000  1.0 0.386921402
C  C2  1  0.16179000  0.66301000  0.41490000  1.0 0.6238483302
C  C3  1  0.39030000  0.92730000  0.15640000  1.0 0.6467548869
C  C4  1  0.09970000  0.29230000  0.46500000  1.0 -0.0083217438
C  C5  1  0.18570000  0.33450000  0.42640000  1.0 -0.0201650812
C  C6  1  0.18780000  0.27220000  0.39770000  1.0 -0.0201650812
C  C7  1  0.10390000  0.16750000  0.40760000  1.0 0.0083254603
C  C8  1  0.01790000  0.12530000  0.44620000  1.0 -0.1569039711
C  C9  1  0.01580000  0.18760000  0.47490000  1.0 -0.0083217438
C  C10  1  0.11280000  0.10360000  0.38750000  1.0 -0.0201650812
C  C11  1  0.02600000  0.00340000  0.37110000  1.0 -0.2178943083
C  C12  1  0.03410000  0.94350000  0.35260000  1.0 -0.191540245
C  C13  1  0.12600000  0.98180000  0.35050000  1.0 -0.0201650812
C  C14  1  0.21030000  0.08190000  0.36370000  1.0 0.0083254603
C  C15  1  0.20360000  0.14280000  0.38110000  1.0 -0.0083217438
C  C16  1  0.13700000  0.92080000  0.33130000  1.0 -0.0201650812
C  C17  1  0.22510000  0.89290000  0.30260000  1.0 0.1051651947
C  C18  1  0.18010000  0.80330000  0.35860000  1.0 -0.191540245
C  C19  1  0.20687000  0.75733000  0.35130000  1.0 -0.0083217438
C  C20  1  0.27519000  0.79761000  0.28800000  1.0 -0.118225487
C  C21  1  0.31755000  0.88425000  0.22870000  1.0 -0.0083217438
C  C22  1  0.29240000  0.93200000  0.23520000  1.0 -0.2091401257
C  C23  1  0.13050000  0.32170000  0.45100000  1.0 0.0013100663
C  C24  1  0.22590000  0.37790000  0.42300000  1.0 -0.0040615359
C  C25  1  0.24520000  0.32900000  0.39700000  1.0 -0.1399649755
C  C26  1  0.16970000  0.22430000  0.39900000  1.0 -0.0083217438
C  C27  1  0.07380000  0.16760000  0.42700000  1.0 -0.0083217438
C  C28  1  0.05440000  0.21660000  0.45300000  1.0 -0.0275067215
C  C29  1  0.18860000  0.17140000  0.37600000  1.0 -0.0201650812
C  C30  1  0.12140000  0.07460000  0.35900000  1.0 -0.0083217438
C  C31  1  0.13570000  0.02430000  0.33900000  1.0 -0.0201650812
C  C32  1  0.23160000  0.07640000  0.33520000  1.0 -0.0426522122
C  C33  1  0.31130000  0.17670000  0.35300000  1.0 -0.1808238626
C  C34  1  0.29330000  0.22670000  0.37400000  1.0 -0.2178943083
C  C35  1  0.25160000  0.02240000  0.31250000  1.0 -0.0083217438
C  C36  1  0.36330000  0.10470000  0.00380000  1.0 0.386921402
C  C37  1  0.66301000  0.16179000  0.08510000  1.0 0.6238483302
C  C38  1  0.92730000  0.39030000  0.34360000  1.0 0.6467548869
C  C39  1  0.29230000  0.09970000  0.03500000  1.0 -0.0083217438
C  C40  1  0.33450000  0.18570000  0.07360000  1.0 -0.0201650812
C  C41  1  0.27220000  0.18780000  0.10230000  1.0 -0.0201650812
C  C42  1  0.16750000  0.10390000  0.09240000  1.0 0.0083254603
C  C43  1  0.12530000  0.01790000  0.05380000  1.0 -0.1569039711
C  C44  1  0.18760000  0.01580000  0.02510000  1.0 -0.0083217438
C  C45  1  0.10360000  0.11280000  0.11250000  1.0 -0.0201650812
C  C46  1  0.00340000  0.02600000  0.12890000  1.0 -0.2178943083
C  C47  1  0.94350000  0.03410000  0.14740000  1.0 -0.191540245
C  C48  1  0.98180000  0.12600000  0.14950000  1.0 -0.0201650812
C  C49  1  0.08190000  0.21030000  0.13630000  1.0 0.0083254603
C  C50  1  0.14280000  0.20360000  0.11890000  1.0 -0.0083217438
C  C51  1  0.92080000  0.13700000  0.16870000  1.0 -0.0201650812
C  C52  1  0.89290000  0.22510000  0.19740000  1.0 0.1001870714
C  C53  1  0.80330000  0.18010000  0.14140000  1.0 -0.191540245
C  C54  1  0.75733000  0.20687000  0.14870000  1.0 -0.0040615359
C  C55  1  0.79761000  0.27519000  0.21200000  1.0 -0.118225487
C  C56  1  0.88425000  0.31755000  0.27130000  1.0 -0.0083217438
C  C57  1  0.93200000  0.29240000  0.26480000  1.0 -0.2091401257
C  C58  1  0.32170000  0.13050000  0.04900000  1.0 0.0013100663
C  C59  1  0.37790000  0.22590000  0.07700000  1.0 -0.0040615359
C  C60  1  0.32900000  0.24520000  0.10300000  1.0 -0.1399649755
C  C61  1  0.22430000  0.16970000  0.10100000  1.0 -0.0083217438
C  C62  1  0.16760000  0.07380000  0.07300000  1.0 -0.0083217438
C  C63  1  0.21660000  0.05440000  0.04700000  1.0 -0.0275067215
C  C64  1  0.17140000  0.18860000  0.12400000  1.0 -0.0201650812
C  C65  1  0.07460000  0.12140000  0.14100000  1.0 -0.0083217438
C  C66  1  0.02430000  0.13570000  0.16100000  1.0 -0.0201650812
C  C67  1  0.07640000  0.23160000  0.16480000  1.0 -0.0426522122
C  C68  1  0.17670000  0.31130000  0.14700000  1.0 -0.1808238626
C  C69  1  0.22670000  0.29330000  0.12600000  1.0 -0.2178943083
C  C70  1  0.02240000  0.25160000  0.18750000  1.0 -0.0083217438
C  C71  1  0.89530000  0.63670000  0.50380000  1.0 0.386921402
C  C72  1  0.83821000  0.33699000  0.58510000  1.0 0.6238483302
C  C73  1  0.60970000  0.07270000  0.84360000  1.0 0.6467548869
C  C74  1  0.90030000  0.70770000  0.53500000  1.0 -0.0083217438
C  C75  1  0.81430000  0.66550000  0.57360000  1.0 -0.0201650812
C  C76  1  0.81220000  0.72780000  0.60230000  1.0 -0.0201650812
C  C77  1  0.89610000  0.83250000  0.59240000  1.0 0.0083254603
C  C78  1  0.98210000  0.87470000  0.55380000  1.0 -0.1569039711
C  C79  1  0.98420000  0.81240000  0.52510000  1.0 -0.0083217438
C  C80  1  0.88720000  0.89640000  0.61250000  1.0 -0.0201650812
C  C81  1  0.97400000  0.99660000  0.62890000  1.0 -0.2178943083
C  C82  1  0.96590000  0.05650000  0.64740000  1.0 -0.191540245
C  C83  1  0.87400000  0.01820000  0.64950000  1.0 -0.0201650812
C  C84  1  0.78970000  0.91810000  0.63630000  1.0 0.0083254603
C  C85  1  0.79640000  0.85720000  0.61890000  1.0 -0.0040615359
C  C86  1  0.86300000  0.07920000  0.66870000  1.0 -0.0083217438
C  C87  1  0.77490000  0.10710000  0.69740000  1.0 0.1001870714
C  C88  1  0.81990000  0.19670000  0.64140000  1.0 -0.191540245
C  C89  1  0.79313000  0.24267000  0.64870000  1.0 -0.0040615359
C  C90  1  0.72481000  0.20239000  0.71200000  1.0 -0.118225487
C  C91  1  0.68245000  0.11575000  0.77130000  1.0 -0.0083217438
C  C92  1  0.70760000  0.06800000  0.76480000  1.0 -0.2091401257
C  C93  1  0.86950000  0.67830000  0.54900000  1.0 0.0013100663
C  C94  1  0.77410000  0.62210000  0.57700000  1.0 -0.0040615359
C  C95  1  0.75480000  0.67100000  0.60300000  1.0 -0.1399649755
C  C96  1  0.83030000  0.77570000  0.60100000  1.0 -0.0083217438
C  C97  1  0.92620000  0.83240000  0.57300000  1.0 -0.0083217438
C  C98  1  0.94560000  0.78340000  0.54700000  1.0 -0.0201650812
C  C99  1  0.81140000  0.82860000  0.62400000  1.0 -0.0201650812
C  C100  1  0.87860000  0.92540000  0.64100000  1.0 -0.0083217438
C  C101  1  0.86430000  0.97570000  0.66100000  1.0 -0.0201650812
C  C102  1  0.76840000  0.92360000  0.66480000  1.0 -0.0426522122
C  C103  1  0.68870000  0.82330000  0.64700000  1.0 -0.1808238626
C  C104  1  0.70670000  0.77330000  0.62600000  1.0 -0.2178943083
C  C105  1  0.74840000  0.97760000  0.68750000  1.0 -0.0083217438
C  C106  1  0.63670000  0.89530000  0.99620000  1.0 0.386921402
C  C107  1  0.33699000  0.83821000  0.91490000  1.0 0.6238483302
C  C108  1  0.07270000  0.60970000  0.65640000  1.0 0.6467548869
C  C109  1  0.70770000  0.90030000  0.96500000  1.0 -0.0083217438
C  C110  1  0.66550000  0.81430000  0.92640000  1.0 -0.0201650812
C  C111  1  0.72780000  0.81220000  0.89770000  1.0 -0.0201650812
C  C112  1  0.83250000  0.89610000  0.90760000  1.0 0.0083254603
C  C113  1  0.87470000  0.98210000  0.94620000  1.0 -0.1569039711
C  C114  1  0.81240000  0.98420000  0.97490000  1.0 -0.0083217438
C  C115  1  0.89640000  0.88720000  0.88750000  1.0 -0.0201650812
C  C116  1  0.99660000  0.97400000  0.87110000  1.0 -0.2178943083
C  C117  1  0.05650000  0.96590000  0.85260000  1.0 -0.191540245
C  C118  1  0.01820000  0.87400000  0.85050000  1.0 -0.0201650812
C  C119  1  0.91810000  0.78970000  0.86370000  1.0 0.0083254603
C  C120  1  0.85720000  0.79640000  0.88110000  1.0 -0.0040615359
C  C121  1  0.07920000  0.86300000  0.83130000  1.0 -0.0201650812
C  C122  1  0.10710000  0.77490000  0.80260000  1.0 0.1001870714
C  C123  1  0.19670000  0.81990000  0.85860000  1.0 -0.191540245
C  C124  1  0.24267000  0.79313000  0.85130000  1.0 -0.0040615359
C  C125  1  0.20239000  0.72481000  0.78800000  1.0 -0.118225487
C  C126  1  0.11575000  0.68245000  0.72870000  1.0 -0.0083217438
C  C127  1  0.06800000  0.70760000  0.73520000  1.0 -0.2091401257
C  C128  1  0.67830000  0.86950000  0.95100000  1.0 0.0013100663
C  C129  1  0.62210000  0.77410000  0.92300000  1.0 -0.0040615359
C  C130  1  0.67100000  0.75480000  0.89700000  1.0 -0.1399649755
C  C131  1  0.77570000  0.83030000  0.89900000  1.0 -0.0083217438
C  C132  1  0.83240000  0.92620000  0.92700000  1.0 -0.0083217438
C  C133  1  0.78340000  0.94560000  0.95300000  1.0 -0.0201650812
C  C134  1  0.82860000  0.81140000  0.87600000  1.0 -0.0201650812
C  C135  1  0.92540000  0.87860000  0.85900000  1.0 -0.0083217438
C  C136  1  0.97570000  0.86430000  0.83900000  1.0 -0.0201650812
C  C137  1  0.92360000  0.76840000  0.83520000  1.0 -0.0426522122
C  C138  1  0.82330000  0.68870000  0.85300000  1.0 -0.1808238626
C  C139  1  0.77330000  0.70670000  0.87400000  1.0 -0.2178943083
C  C140  1  0.97760000  0.74840000  0.81250000  1.0 -0.0083217438
N  N1  1  0.20820000  0.94760000  0.31480000  1.0 -0.0275067215
N  N2  1  0.94760000  0.20820000  0.18520000  1.0 -0.0275067215
N  N3  1  0.79180000  0.05240000  0.68520000  1.0 -0.0275067215
N  N4  1  0.05240000  0.79180000  0.81480000  1.0 -0.0275067215
O  O1  1  0.17770000  0.45890000  0.48310000  1.0 -0.5691769459
O  O2  1  0.02835000  0.31985000  0.53480000  1.0 -0.5475780405
O  O3  1  0.07638000  0.60722000  0.44550000  1.0 -0.7404063382
O  O4  1  0.20914000  0.64286000  0.43500000  1.0 -0.6104267725
O  O5  1  0.43175000  0.01025000  0.11130000  1.0 -0.6700094827
O  O6  1  0.40503000  0.87737000  0.14770000  1.0 -0.6806140133
O  O7  1  0.45890000  0.17770000  0.01690000  1.0 -0.5691769459
O  O8  1  0.31985000  0.02835000  0.96520000  1.0 -0.5475780405
O  O9  1  0.60722000  0.07638000  0.05450000  1.0 -0.7404063382
O  O10  1  0.64286000  0.20914000  0.06500000  1.0 -0.6104267725
O  O11  1  0.01025000  0.43175000  0.38870000  1.0 -0.6700094827
O  O12  1  0.87737000  0.40503000  0.35230000  1.0 -0.6806140133
O  O13  1  0.82230000  0.54110000  0.51690000  1.0 -0.5691769459
O  O14  1  0.97165000  0.68015000  0.46520000  1.0 -0.5475780405
O  O15  1  0.92362000  0.39278000  0.55450000  1.0 -0.7404063382
O  O16  1  0.79086000  0.35714000  0.56500000  1.0 -0.6104267725
O  O17  1  0.56825000  0.98975000  0.88870000  1.0 -0.6700094827
O  O18  1  0.59497000  0.12263000  0.85230000  1.0 -0.6806140133
O  O19  1  0.54110000  0.82230000  0.98310000  1.0 -0.5691769459
O  O20  1  0.68015000  0.97165000  0.03480000  1.0 -0.5475780405
O  O21  1  0.39278000  0.92362000  0.94550000  1.0 -0.7404063382
O  O22  1  0.35714000  0.79086000  0.93500000  1.0 -0.6104267725
O  O23  1  0.98975000  0.56825000  0.61130000  1.0 -0.6700094827
O  O24  1  0.12263000  0.59497000  0.64770000  1.0 -0.6806140133
