# DDEC6 charges by PACMAN v1.1 (https://github.com/mtap-research/PACMAN-charge/)
data_XAHPAB_FSR_pacman
_symmetry_space_group_name_H-M   'P 1'
_cell_length_a   20.47440000
_cell_length_b   20.47440000
_cell_length_c   14.03500000
_cell_angle_alpha   84.87080000
_cell_angle_beta   95.12920000
_cell_angle_gamma   139.39600000
_symmetry_Int_Tables_number   1
_chemical_formula_structural   NdH44C44N3O8
_chemical_formula_sum   'Nd4 H176 C176 N12 O32'
_cell_volume   3811.69675960
_cell_formula_units_Z   4
loop_
 _symmetry_equiv_pos_site_id
 _symmetry_equiv_pos_as_xyz
  1  'x, y, z'
loop_
 _atom_site_type_symbol
 _atom_site_label
 _atom_site_symmetry_multiplicity
 _atom_site_fract_x
 _atom_site_fract_y
 _atom_site_fract_z
 _atom_site_occupancy
 _atom_site_charge
Nd  Nd1  1  0.50365000  0.90327000  0.52934000  1.0 1.9712108072
Nd  Nd2  1  0.90327000  0.50365000  0.97066000  1.0 1.9712108072
Nd  Nd3  1  0.49635000  0.09673000  0.47066000  1.0 1.9712108072
Nd  Nd4  1  0.09673000  0.49635000  0.02934000  1.0 1.9712108072
H  H1  1  0.67717000  0.09123000  0.91444000  1.0 0.1108639248
H  H2  1  0.50367000  0.96959000  0.91185000  1.0 0.1004190379
H  H3  1  0.40397000  0.80081000  0.92281000  1.0 0.0895897469
H  H4  1  0.65126000  0.87528000  0.93894000  1.0 0.0895897469
H  H5  1  0.80449000  0.02731000  0.93017000  1.0 0.0895897469
H  H6  1  0.82964000  0.11280000  0.97315000  1.0 0.0895897469
H  H7  1  0.81822000  0.10180000  0.86198000  1.0 0.1004190379
H  H8  1  0.38379000  0.67047000  0.93496000  1.0 0.1108639248
H  H9  1  0.46927000  0.69657000  0.99509000  1.0 0.1004190379
H  H10  1  0.46658000  0.69680000  0.88309000  1.0 0.0895897469
H  H11  1  0.88395000  0.24097000  0.09448000  1.0 0.1108639248
H  H12  1  0.70028000  0.22416000  0.21451000  1.0 0.1186705683
H  H13  1  0.68844000  0.02134000  0.29054000  1.0 0.1108639248
H  H14  1  0.69437000  0.95411000  0.16902000  1.0 0.1004190379
H  H15  1  0.64041000  0.80619000  0.12993000  1.0 0.1186705683
H  H16  1  0.67018000  0.72120000  0.10527000  1.0 0.1108639248
H  H17  1  0.96650000  0.97592000  0.14358000  1.0 0.1108639248
H  H18  1  0.93561000  0.06005000  0.16907000  1.0 0.1295573079
H  H19  1  0.70759000  0.64627000  0.15019000  1.0 0.1108639248
H  H20  1  0.73247000  0.55891000  0.11534000  1.0 0.1186705683
H  H21  1  0.00449000  0.81283000  0.01945000  1.0 0.1295573079
H  H22  1  0.98217000  0.90219000  0.05783000  1.0 0.1186705683
H  H23  1  0.63460000  0.94940000  0.69900000  1.0 0.3730923232
H  H24  1  0.54700000  0.91700000  0.74300000  1.0 0.3588233884
H  H25  1  0.27377000  0.70269000  0.61419000  1.0 0.078339621
H  H26  1  0.26052000  0.50944000  0.74359000  1.0 0.0575879287
H  H27  1  0.35739000  0.59799000  0.67960000  1.0 0.1004190379
H  H28  1  0.15552000  0.49712000  0.77184000  1.0 0.0895897469
H  H29  1  0.15746000  0.57504000  0.73312000  1.0 0.1004190379
H  H30  1  0.27131000  0.68417000  0.56698000  1.0 0.0895897469
H  H31  1  0.70575000  0.18999000  0.90487000  1.0 0.0895897469
H  H32  1  0.53340000  0.06288000  0.87547000  1.0 0.0689214837
H  H33  1  0.44248000  0.89726000  0.87467000  1.0 0.078339621
H  H34  1  0.69626000  0.98586000  0.93266000  1.0 0.0895897469
H  H35  1  0.84760000  0.14366000  0.95007000  1.0 0.078339621
H  H36  1  0.85268000  0.21446000  0.99618000  1.0 0.0895897469
H  H37  1  0.86723000  0.22373000  0.88605000  1.0 0.1186705683
H  H38  1  0.54651000  0.81543000  0.91594000  1.0 0.0895897469
H  H39  1  0.46911000  0.79127000  0.84133000  1.0 0.1108639248
H  H40  1  0.45226000  0.77942000  0.95121000  1.0 0.0895897469
H  H41  1  0.33377000  0.60999000  0.73880000  1.0 0.0895897469
H  H42  1  0.22639000  0.52641000  0.78840000  1.0 0.078339621
H  H43  1  0.10094000  0.49316000  0.73223000  1.0 0.0689214837
H  H44  1  0.10900000  0.55022000  0.63849000  1.0 0.078339621
H  H45  1  0.09123000  0.67717000  0.58556000  1.0 0.1108639248
H  H46  1  0.96959000  0.50367000  0.58815000  1.0 0.1004190379
H  H47  1  0.80081000  0.40397000  0.57719000  1.0 0.0895897469
H  H48  1  0.87528000  0.65126000  0.56106000  1.0 0.0895897469
H  H49  1  0.02731000  0.80449000  0.56983000  1.0 0.0895897469
H  H50  1  0.11280000  0.82964000  0.52685000  1.0 0.0895897469
H  H51  1  0.10180000  0.81822000  0.63802000  1.0 0.1004190379
H  H52  1  0.67047000  0.38379000  0.56504000  1.0 0.1108639248
H  H53  1  0.69657000  0.46927000  0.50491000  1.0 0.1004190379
H  H54  1  0.69680000  0.46658000  0.61691000  1.0 0.0895897469
H  H55  1  0.24097000  0.88395000  0.40552000  1.0 0.1108639248
H  H56  1  0.22416000  0.70028000  0.28549000  1.0 0.1186705683
H  H57  1  0.02134000  0.68844000  0.20946000  1.0 0.1108639248
H  H58  1  0.95411000  0.69437000  0.33098000  1.0 0.1004190379
H  H59  1  0.80619000  0.64041000  0.37007000  1.0 0.1186705683
H  H60  1  0.72120000  0.67018000  0.39473000  1.0 0.1108639248
H  H61  1  0.97592000  0.96650000  0.35642000  1.0 0.1108639248
H  H62  1  0.06005000  0.93561000  0.33093000  1.0 0.1295573079
H  H63  1  0.64627000  0.70759000  0.34981000  1.0 0.1108639248
H  H64  1  0.55891000  0.73247000  0.38466000  1.0 0.1186705683
H  H65  1  0.81283000  0.00449000  0.48055000  1.0 0.1295573079
H  H66  1  0.90219000  0.98217000  0.44217000  1.0 0.1186705683
H  H67  1  0.94940000  0.63460000  0.80100000  1.0 0.3730923232
H  H68  1  0.91700000  0.54700000  0.75700000  1.0 0.3588233884
H  H69  1  0.70269000  0.27377000  0.88581000  1.0 0.078339621
H  H70  1  0.50944000  0.26052000  0.75641000  1.0 0.0575879287
H  H71  1  0.59799000  0.35739000  0.82040000  1.0 0.1004190379
H  H72  1  0.49712000  0.15552000  0.72816000  1.0 0.0895897469
H  H73  1  0.57504000  0.15746000  0.76688000  1.0 0.1004190379
H  H74  1  0.68417000  0.27131000  0.93302000  1.0 0.0895897469
H  H75  1  0.18999000  0.70575000  0.59513000  1.0 0.0895897469
H  H76  1  0.06288000  0.53340000  0.62453000  1.0 0.0689214837
H  H77  1  0.89726000  0.44248000  0.62533000  1.0 0.078339621
H  H78  1  0.98586000  0.69626000  0.56734000  1.0 0.0895897469
H  H79  1  0.14366000  0.84760000  0.54993000  1.0 0.0689214837
H  H80  1  0.21446000  0.85268000  0.50382000  1.0 0.0895897469
H  H81  1  0.22373000  0.86723000  0.61395000  1.0 0.1186705683
H  H82  1  0.81543000  0.54651000  0.58406000  1.0 0.0895897469
H  H83  1  0.79127000  0.46911000  0.65867000  1.0 0.1108639248
H  H84  1  0.77942000  0.45226000  0.54879000  1.0 0.0895897469
H  H85  1  0.60999000  0.33377000  0.76120000  1.0 0.0895897469
H  H86  1  0.52641000  0.22639000  0.71160000  1.0 0.078339621
H  H87  1  0.49316000  0.10094000  0.76777000  1.0 0.0689214837
H  H88  1  0.55022000  0.10900000  0.86151000  1.0 0.078339621
H  H89  1  0.32283000  0.90877000  0.08556000  1.0 0.1108639248
H  H90  1  0.49633000  0.03041000  0.08815000  1.0 0.1004190379
H  H91  1  0.59603000  0.19919000  0.07719000  1.0 0.0895897469
H  H92  1  0.34874000  0.12472000  0.06106000  1.0 0.0895897469
H  H93  1  0.19551000  0.97269000  0.06983000  1.0 0.0895897469
H  H94  1  0.17036000  0.88720000  0.02685000  1.0 0.0895897469
H  H95  1  0.18178000  0.89820000  0.13802000  1.0 0.1004190379
H  H96  1  0.61621000  0.32953000  0.06504000  1.0 0.1108639248
H  H97  1  0.53073000  0.30343000  0.00491000  1.0 0.1004190379
H  H98  1  0.53342000  0.30320000  0.11691000  1.0 0.0895897469
H  H99  1  0.11605000  0.75903000  0.90552000  1.0 0.1108639248
H  H100  1  0.29972000  0.77584000  0.78549000  1.0 0.1186705683
H  H101  1  0.31156000  0.97866000  0.70946000  1.0 0.1108639248
H  H102  1  0.30563000  0.04589000  0.83098000  1.0 0.1004190379
H  H103  1  0.35959000  0.19381000  0.87007000  1.0 0.1186705683
H  H104  1  0.32982000  0.27880000  0.89473000  1.0 0.1108639248
H  H105  1  0.03350000  0.02408000  0.85642000  1.0 0.1108639248
H  H106  1  0.06439000  0.93995000  0.83093000  1.0 0.1295573079
H  H107  1  0.29241000  0.35373000  0.84981000  1.0 0.1108639248
H  H108  1  0.26753000  0.44109000  0.88466000  1.0 0.1186705683
H  H109  1  0.99551000  0.18717000  0.98055000  1.0 0.1295573079
H  H110  1  0.01783000  0.09781000  0.94217000  1.0 0.1186705683
H  H111  1  0.36540000  0.05060000  0.30100000  1.0 0.3730923232
H  H112  1  0.45300000  0.08300000  0.25700000  1.0 0.3588233884
H  H113  1  0.72623000  0.29731000  0.38581000  1.0 0.078339621
H  H114  1  0.73948000  0.49056000  0.25641000  1.0 0.0575879287
H  H115  1  0.64261000  0.40201000  0.32040000  1.0 0.1004190379
H  H116  1  0.84448000  0.50288000  0.22816000  1.0 0.0895897469
H  H117  1  0.84254000  0.42496000  0.26688000  1.0 0.1004190379
H  H118  1  0.72869000  0.31583000  0.43302000  1.0 0.0895897469
H  H119  1  0.29425000  0.81001000  0.09513000  1.0 0.0895897469
H  H120  1  0.46660000  0.93712000  0.12453000  1.0 0.0689214837
H  H121  1  0.55752000  0.10274000  0.12533000  1.0 0.078339621
H  H122  1  0.30374000  0.01414000  0.06735000  1.0 0.0895897469
H  H123  1  0.15240000  0.85634000  0.04993000  1.0 0.078339621
H  H124  1  0.14732000  0.78554000  0.00382000  1.0 0.0895897469
H  H125  1  0.13277000  0.77627000  0.11395000  1.0 0.1186705683
H  H126  1  0.45349000  0.18457000  0.08406000  1.0 0.0895897469
H  H127  1  0.53089000  0.20873000  0.15867000  1.0 0.1108639248
H  H128  1  0.54774000  0.22058000  0.04879000  1.0 0.0895897469
H  H129  1  0.66623000  0.39001000  0.26120000  1.0 0.0895897469
H  H130  1  0.77361000  0.47359000  0.21160000  1.0 0.078339621
H  H131  1  0.89906000  0.50684000  0.26777000  1.0 0.0689214837
H  H132  1  0.89100000  0.44978000  0.36151000  1.0 0.078339621
H  H133  1  0.90877000  0.32283000  0.41444000  1.0 0.1108639248
H  H134  1  0.03041000  0.49633000  0.41185000  1.0 0.1004190379
H  H135  1  0.19919000  0.59603000  0.42281000  1.0 0.0895897469
H  H136  1  0.12472000  0.34874000  0.43894000  1.0 0.0895897469
H  H137  1  0.97269000  0.19551000  0.43017000  1.0 0.0895897469
H  H138  1  0.88720000  0.17036000  0.47315000  1.0 0.0895897469
H  H139  1  0.89820000  0.18178000  0.36198000  1.0 0.1004190379
H  H140  1  0.32953000  0.61621000  0.43496000  1.0 0.1108639248
H  H141  1  0.30343000  0.53073000  0.49509000  1.0 0.1004190379
H  H142  1  0.30320000  0.53342000  0.38309000  1.0 0.0895897469
H  H143  1  0.75903000  0.11605000  0.59448000  1.0 0.1108639248
H  H144  1  0.77584000  0.29972000  0.71451000  1.0 0.1295573079
H  H145  1  0.97866000  0.31156000  0.79054000  1.0 0.1108639248
H  H146  1  0.04589000  0.30563000  0.66902000  1.0 0.1004190379
H  H147  1  0.19381000  0.35959000  0.62993000  1.0 0.1186705683
H  H148  1  0.27880000  0.32982000  0.60527000  1.0 0.1108639248
H  H149  1  0.02408000  0.03350000  0.64358000  1.0 0.1108639248
H  H150  1  0.93995000  0.06439000  0.66907000  1.0 0.1295573079
H  H151  1  0.35373000  0.29241000  0.65019000  1.0 0.1108639248
H  H152  1  0.44109000  0.26753000  0.61534000  1.0 0.1186705683
H  H153  1  0.18717000  0.99551000  0.51945000  1.0 0.1295573079
H  H154  1  0.09781000  0.01783000  0.55783000  1.0 0.1186705683
H  H155  1  0.05060000  0.36540000  0.19900000  1.0 0.3730923232
H  H156  1  0.08300000  0.45300000  0.24300000  1.0 0.3588233884
H  H157  1  0.29731000  0.72623000  0.11419000  1.0 0.078339621
H  H158  1  0.49056000  0.73948000  0.24359000  1.0 0.0575879287
H  H159  1  0.40201000  0.64261000  0.17960000  1.0 0.1004190379
H  H160  1  0.50288000  0.84448000  0.27184000  1.0 0.0895897469
H  H161  1  0.42496000  0.84254000  0.23312000  1.0 0.1004190379
H  H162  1  0.31583000  0.72869000  0.06698000  1.0 0.0895897469
H  H163  1  0.81001000  0.29425000  0.40487000  1.0 0.0895897469
H  H164  1  0.93712000  0.46660000  0.37547000  1.0 0.0689214837
H  H165  1  0.10274000  0.55752000  0.37467000  1.0 0.078339621
H  H166  1  0.01414000  0.30374000  0.43265000  1.0 0.0895897469
H  H167  1  0.85634000  0.15240000  0.45007000  1.0 0.078339621
H  H168  1  0.78554000  0.14732000  0.49618000  1.0 0.0895897469
H  H169  1  0.77627000  0.13277000  0.38605000  1.0 0.1186705683
H  H170  1  0.18457000  0.45349000  0.41594000  1.0 0.0895897469
H  H171  1  0.20873000  0.53089000  0.34133000  1.0 0.1108639248
H  H172  1  0.22058000  0.54774000  0.45121000  1.0 0.0895897469
H  H173  1  0.39001000  0.66623000  0.23880000  1.0 0.0895897469
H  H174  1  0.47359000  0.77361000  0.28840000  1.0 0.078339621
H  H175  1  0.50684000  0.89906000  0.23223000  1.0 0.0689214837
H  H176  1  0.44978000  0.89100000  0.13849000  1.0 0.078339621
C  C1  1  0.68150000  0.99530000  0.92690000  1.0 0.0575879287
C  C2  1  0.63720000  0.02360000  0.91880000  1.0 0.0101545994
C  C3  1  0.53328000  0.95072000  0.91730000  1.0 -0.0183713505
C  C4  1  0.47350000  0.84950000  0.92380000  1.0 -0.1091906966
C  C5  1  0.51770000  0.82130000  0.93200000  1.0 -0.0183713505
C  C6  1  0.62165000  0.89415000  0.93350000  1.0 -0.131653041
C  C7  1  0.79390000  0.06590000  0.92270000  1.0 -0.2616258078
C  C8  1  0.45340000  0.71120000  0.93670000  1.0 -0.294958413
C  C9  1  0.79018000  0.12302000  0.18860000  1.0 0.1663679402
C  C10  1  0.83252000  0.20848000  0.13590000  1.0 -0.1600298587
C  C11  1  0.79779000  0.24501000  0.14520000  1.0 -0.0321237249
C  C12  1  0.72307000  0.19913000  0.20870000  1.0 -0.2124546845
C  C13  1  0.68257000  0.11563000  0.26340000  1.0 -0.0689232111
C  C14  1  0.71571000  0.07729000  0.25380000  1.0 -0.2326750573
C  C15  1  0.83883000  0.33417000  0.08570000  1.0 0.473434798
C  C16  1  0.60403000  0.06737000  0.33460000  1.0 0.5436662581
C  C17  1  0.76163000  0.99337000  0.16740000  1.0 -0.0984174874
C  C18  1  0.78490000  0.94250000  0.15340000  1.0 0.078339621
C  C19  1  0.70607000  0.84033000  0.13330000  1.0 -0.1600298587
C  C20  1  0.72382000  0.78918000  0.11830000  1.0 -0.139415136
C  C21  1  0.82198000  0.83882000  0.12240000  1.0 0.0575879287
C  C22  1  0.90071000  0.94129000  0.14130000  1.0 -0.1600298587
C  C23  1  0.88208000  0.99192000  0.15650000  1.0 -0.1091906966
C  C24  1  0.84041000  0.78339000  0.10530000  1.0 0.0689214837
C  C25  1  0.76742000  0.68038000  0.12340000  1.0 -0.14934609
C  C26  1  0.78225000  0.62775000  0.10230000  1.0 -0.1091906966
C  C27  1  0.86952000  0.67568000  0.06220000  1.0 -0.0183713505
C  C28  1  0.94468000  0.77932000  0.04560000  1.0 -0.093138874
C  C29  1  0.93092000  0.83288000  0.06790000  1.0 -0.14934609
C  C30  1  0.88157000  0.61703000  0.03250000  1.0 0.5295140442
C  C31  1  0.26850000  0.57550000  0.74000000  1.0 -0.0183713505
C  C32  1  0.13820000  0.54060000  0.68230000  1.0 -0.1694081281
C  C33  1  0.30620000  0.68760000  0.63130000  1.0 -0.14934609
C  C34  1  0.29950000  0.56850000  0.70600000  1.0 -0.139415136
C  C35  1  0.18650000  0.55550000  0.73700000  1.0 -0.0183713505
C  C36  1  0.29930000  0.67370000  0.61160000  1.0 -0.1600298587
C  C37  1  0.71780000  0.10020000  0.92200000  1.0 0.0269038674
C  C38  1  0.66890000  0.12310000  0.90500000  1.0 -0.1600298587
C  C39  1  0.56630000  0.04770000  0.88700000  1.0 -0.1600298587
C  C40  1  0.51170000  0.94830000  0.88600000  1.0 -0.05831188
C  C41  1  0.56060000  0.92540000  0.90400000  1.0 0.0393581461
C  C42  1  0.66320000  0.00080000  0.92100000  1.0 0.0101545994
C  C43  1  0.83200000  0.17800000  0.94000000  1.0 -0.2616258078
C  C44  1  0.50200000  0.81800000  0.90300000  1.0 -0.0493169077
C  C45  1  0.99530000  0.68150000  0.57310000  1.0 0.0575879287
C  C46  1  0.02360000  0.63720000  0.58120000  1.0 0.0101545994
C  C47  1  0.95072000  0.53328000  0.58270000  1.0 -0.0183713505
C  C48  1  0.84950000  0.47350000  0.57620000  1.0 -0.1091906966
C  C49  1  0.82130000  0.51770000  0.56800000  1.0 -0.0183713505
C  C50  1  0.89415000  0.62165000  0.56650000  1.0 -0.131653041
C  C51  1  0.06590000  0.79390000  0.57730000  1.0 -0.2616258078
C  C52  1  0.71120000  0.45340000  0.56330000  1.0 -0.294958413
C  C53  1  0.12302000  0.79018000  0.31140000  1.0 0.1663679402
C  C54  1  0.20848000  0.83252000  0.36410000  1.0 -0.1600298587
C  C55  1  0.24501000  0.79779000  0.35480000  1.0 -0.0321237249
C  C56  1  0.19913000  0.72307000  0.29130000  1.0 -0.2124546845
C  C57  1  0.11563000  0.68257000  0.23660000  1.0 -0.0689232111
C  C58  1  0.07729000  0.71571000  0.24620000  1.0 -0.2326750573
C  C59  1  0.33417000  0.83883000  0.41430000  1.0 0.473434798
C  C60  1  0.06737000  0.60403000  0.16540000  1.0 0.5436662581
C  C61  1  0.99337000  0.76163000  0.33260000  1.0 -0.0984174874
C  C62  1  0.94250000  0.78490000  0.34660000  1.0 0.078339621
C  C63  1  0.84033000  0.70607000  0.36670000  1.0 -0.1600298587
C  C64  1  0.78918000  0.72382000  0.38170000  1.0 -0.139415136
C  C65  1  0.83882000  0.82198000  0.37760000  1.0 0.0575879287
C  C66  1  0.94129000  0.90071000  0.35870000  1.0 -0.1600298587
C  C67  1  0.99192000  0.88208000  0.34350000  1.0 -0.1091906966
C  C68  1  0.78339000  0.84041000  0.39470000  1.0 0.0689214837
C  C69  1  0.68038000  0.76742000  0.37660000  1.0 -0.14934609
C  C70  1  0.62775000  0.78225000  0.39770000  1.0 -0.1091906966
C  C71  1  0.67568000  0.86952000  0.43780000  1.0 -0.0183713505
C  C72  1  0.77932000  0.94468000  0.45440000  1.0 -0.093138874
C  C73  1  0.83288000  0.93092000  0.43210000  1.0 -0.14934609
C  C74  1  0.61703000  0.88157000  0.46750000  1.0 0.5295140442
C  C75  1  0.57550000  0.26850000  0.76000000  1.0 -0.0183713505
C  C76  1  0.54060000  0.13820000  0.81770000  1.0 -0.1694081281
C  C77  1  0.68760000  0.30620000  0.86870000  1.0 -0.14934609
C  C78  1  0.56850000  0.29950000  0.79400000  1.0 -0.139415136
C  C79  1  0.55550000  0.18650000  0.76300000  1.0 -0.0183713505
C  C80  1  0.67370000  0.29930000  0.88840000  1.0 -0.1600298587
C  C81  1  0.10020000  0.71780000  0.57800000  1.0 0.0269038674
C  C82  1  0.12310000  0.66890000  0.59500000  1.0 -0.1600298587
C  C83  1  0.04770000  0.56630000  0.61300000  1.0 -0.1600298587
C  C84  1  0.94830000  0.51170000  0.61400000  1.0 -0.05831188
C  C85  1  0.92540000  0.56060000  0.59600000  1.0 0.0393581461
C  C86  1  0.00080000  0.66320000  0.57900000  1.0 0.0101545994
C  C87  1  0.17800000  0.83200000  0.56000000  1.0 -0.2616258078
C  C88  1  0.81800000  0.50200000  0.59700000  1.0 -0.0493169077
C  C89  1  0.31850000  0.00470000  0.07310000  1.0 0.0575879287
C  C90  1  0.36280000  0.97640000  0.08120000  1.0 0.0101545994
C  C91  1  0.46672000  0.04928000  0.08270000  1.0 -0.0183713505
C  C92  1  0.52650000  0.15050000  0.07620000  1.0 -0.1091906966
C  C93  1  0.48230000  0.17870000  0.06800000  1.0 -0.0183713505
C  C94  1  0.37835000  0.10585000  0.06650000  1.0 -0.131653041
C  C95  1  0.20610000  0.93410000  0.07730000  1.0 -0.2616258078
C  C96  1  0.54660000  0.28880000  0.06330000  1.0 -0.2951669697
C  C97  1  0.20982000  0.87698000  0.81140000  1.0 0.1663679402
C  C98  1  0.16748000  0.79152000  0.86410000  1.0 -0.1600298587
C  C99  1  0.20221000  0.75499000  0.85480000  1.0 -0.0321237249
C  C100  1  0.27693000  0.80087000  0.79130000  1.0 -0.2124546845
C  C101  1  0.31743000  0.88437000  0.73660000  1.0 -0.0689232111
C  C102  1  0.28429000  0.92271000  0.74620000  1.0 -0.2326750573
C  C103  1  0.16117000  0.66583000  0.91430000  1.0 0.473434798
C  C104  1  0.39597000  0.93263000  0.66540000  1.0 0.5436662581
C  C105  1  0.23837000  0.00663000  0.83260000  1.0 -0.0984174874
C  C106  1  0.21510000  0.05750000  0.84660000  1.0 0.078339621
C  C107  1  0.29393000  0.15967000  0.86670000  1.0 -0.1600298587
C  C108  1  0.27618000  0.21082000  0.88170000  1.0 -0.139415136
C  C109  1  0.17802000  0.16118000  0.87760000  1.0 0.0575879287
C  C110  1  0.09929000  0.05871000  0.85870000  1.0 -0.1600298587
C  C111  1  0.11792000  0.00808000  0.84350000  1.0 -0.1091906966
C  C112  1  0.15959000  0.21661000  0.89470000  1.0 0.0689214837
C  C113  1  0.23258000  0.31962000  0.87660000  1.0 -0.14934609
C  C114  1  0.21775000  0.37225000  0.89770000  1.0 -0.1091906966
C  C115  1  0.13048000  0.32432000  0.93780000  1.0 -0.0183713505
C  C116  1  0.05532000  0.22068000  0.95440000  1.0 -0.093138874
C  C117  1  0.06908000  0.16712000  0.93210000  1.0 -0.14934609
C  C118  1  0.11843000  0.38297000  0.96750000  1.0 0.5295140442
C  C119  1  0.73150000  0.42450000  0.26000000  1.0 -0.0147956893
C  C120  1  0.86180000  0.45940000  0.31770000  1.0 -0.1694081281
C  C121  1  0.69380000  0.31240000  0.36870000  1.0 -0.14934609
C  C122  1  0.70050000  0.43150000  0.29400000  1.0 -0.139415136
C  C123  1  0.81350000  0.44450000  0.26300000  1.0 -0.0183713505
C  C124  1  0.70070000  0.32630000  0.38840000  1.0 -0.1600298587
C  C125  1  0.28220000  0.89980000  0.07800000  1.0 0.0269038674
C  C126  1  0.33110000  0.87690000  0.09500000  1.0 -0.1600298587
C  C127  1  0.43370000  0.95230000  0.11300000  1.0 -0.1600298587
C  C128  1  0.48830000  0.05170000  0.11400000  1.0 -0.05831188
C  C129  1  0.43940000  0.07460000  0.09600000  1.0 0.0393581461
C  C130  1  0.33680000  0.99920000  0.07900000  1.0 0.0101545994
C  C131  1  0.16800000  0.82200000  0.06000000  1.0 -0.2616258078
C  C132  1  0.49800000  0.18200000  0.09700000  1.0 -0.0493169077
C  C133  1  0.00470000  0.31850000  0.42690000  1.0 0.0575879287
C  C134  1  0.97640000  0.36280000  0.41880000  1.0 0.0101545994
C  C135  1  0.04928000  0.46672000  0.41730000  1.0 -0.0183713505
C  C136  1  0.15050000  0.52650000  0.42380000  1.0 -0.1091906966
C  C137  1  0.17870000  0.48230000  0.43200000  1.0 -0.0183713505
C  C138  1  0.10585000  0.37835000  0.43350000  1.0 -0.131653041
C  C139  1  0.93410000  0.20610000  0.42270000  1.0 -0.2651566867
C  C140  1  0.28880000  0.54660000  0.43670000  1.0 -0.2951669697
C  C141  1  0.87698000  0.20982000  0.68860000  1.0 0.1663679402
C  C142  1  0.79152000  0.16748000  0.63590000  1.0 -0.1600298587
C  C143  1  0.75499000  0.20221000  0.64520000  1.0 -0.0321237249
C  C144  1  0.80087000  0.27693000  0.70870000  1.0 -0.2124546845
C  C145  1  0.88437000  0.31743000  0.76340000  1.0 -0.0689232111
C  C146  1  0.92271000  0.28429000  0.75380000  1.0 -0.2326750573
C  C147  1  0.66583000  0.16117000  0.58570000  1.0 0.473434798
C  C148  1  0.93263000  0.39597000  0.83460000  1.0 0.5436662581
C  C149  1  0.00663000  0.23837000  0.66740000  1.0 -0.0984174874
C  C150  1  0.05750000  0.21510000  0.65340000  1.0 0.078339621
C  C151  1  0.15967000  0.29393000  0.63330000  1.0 -0.1600298587
C  C152  1  0.21082000  0.27618000  0.61830000  1.0 -0.139415136
C  C153  1  0.16118000  0.17802000  0.62240000  1.0 0.0575879287
C  C154  1  0.05871000  0.09929000  0.64130000  1.0 -0.1600298587
C  C155  1  0.00808000  0.11792000  0.65650000  1.0 -0.1091906966
C  C156  1  0.21661000  0.15959000  0.60530000  1.0 0.0689214837
C  C157  1  0.31962000  0.23258000  0.62340000  1.0 -0.14934609
C  C158  1  0.37225000  0.21775000  0.60230000  1.0 -0.1091906966
C  C159  1  0.32432000  0.13048000  0.56220000  1.0 -0.0183713505
C  C160  1  0.22068000  0.05532000  0.54560000  1.0 -0.093138874
C  C161  1  0.16712000  0.06908000  0.56790000  1.0 -0.14934609
C  C162  1  0.38297000  0.11843000  0.53250000  1.0 0.5295140442
C  C163  1  0.42450000  0.73150000  0.24000000  1.0 -0.0183713505
C  C164  1  0.45940000  0.86180000  0.18230000  1.0 -0.1694081281
C  C165  1  0.31240000  0.69380000  0.13130000  1.0 -0.14934609
C  C166  1  0.43150000  0.70050000  0.20600000  1.0 -0.139415136
C  C167  1  0.44450000  0.81350000  0.23700000  1.0 -0.0183713505
C  C168  1  0.32630000  0.70070000  0.11160000  1.0 -0.1600298587
C  C169  1  0.89980000  0.28220000  0.42200000  1.0 0.0269038674
C  C170  1  0.87690000  0.33110000  0.40500000  1.0 -0.1600298587
C  C171  1  0.95230000  0.43370000  0.38700000  1.0 -0.1600298587
C  C172  1  0.05170000  0.48830000  0.38600000  1.0 -0.05831188
C  C173  1  0.07460000  0.43940000  0.40400000  1.0 0.0393581461
C  C174  1  0.99920000  0.33680000  0.42100000  1.0 0.0101545994
C  C175  1  0.82200000  0.16800000  0.44000000  1.0 -0.2616258078
C  C176  1  0.18200000  0.49800000  0.40300000  1.0 -0.0493169077
N  N1  1  0.82632000  0.08648000  0.17730000  1.0 -0.2616258078
N  N2  1  0.23310000  0.59470000  0.67360000  1.0 0.1417311873
N  N3  1  0.27200000  0.61040000  0.69150000  1.0 0.155294716
N  N4  1  0.08648000  0.82632000  0.32270000  1.0 -0.2616258078
N  N5  1  0.59470000  0.23310000  0.82640000  1.0 0.1417311873
N  N6  1  0.61040000  0.27200000  0.80850000  1.0 0.155294716
N  N7  1  0.17368000  0.91352000  0.82270000  1.0 -0.2616258078
N  N8  1  0.76690000  0.40530000  0.32640000  1.0 0.1417311873
N  N9  1  0.72800000  0.38960000  0.30850000  1.0 0.1543617841
N  N10  1  0.91352000  0.17368000  0.67730000  1.0 -0.2616258078
N  N11  1  0.40530000  0.76690000  0.17360000  1.0 0.1417311873
N  N12  1  0.38960000  0.72800000  0.19150000  1.0 0.1543617841
O  O1  1  0.38828000  0.73272000  0.60460000  1.0 -0.3270659749
O  O2  1  0.56386000  0.98614000  0.37510000  1.0 -0.6380793456
O  O3  1  0.58431000  0.11029000  0.34910000  1.0 -0.6187285785
O  O4  1  0.78960000  0.34900000  0.07480000  1.0 -0.5607165996
O  O5  1  0.92357000  0.39295000  0.04690000  1.0 -0.6782679263
O  O6  1  0.95765000  0.66115000  0.98600000  1.0 -0.6084418673
O  O7  1  0.81540000  0.52380000  0.05360000  1.0 -0.6084418673
O  O8  1  0.57946000  0.92754000  0.69060000  1.0 -0.7831625048
O  O9  1  0.73272000  0.38828000  0.89540000  1.0 -0.3270659749
O  O10  1  0.98614000  0.56386000  0.12490000  1.0 -0.6380793456
O  O11  1  0.11029000  0.58431000  0.15090000  1.0 -0.6187285785
O  O12  1  0.34900000  0.78960000  0.42520000  1.0 -0.5607165996
O  O13  1  0.39295000  0.92357000  0.45310000  1.0 -0.6782679263
O  O14  1  0.66115000  0.95765000  0.51400000  1.0 -0.6084418673
O  O15  1  0.52380000  0.81540000  0.44640000  1.0 -0.6084418673
O  O16  1  0.92754000  0.57946000  0.80940000  1.0 -0.7831625048
O  O17  1  0.61172000  0.26728000  0.39540000  1.0 -0.3270659749
O  O18  1  0.43614000  0.01386000  0.62490000  1.0 -0.6380793456
O  O19  1  0.41569000  0.88971000  0.65090000  1.0 -0.6187285785
O  O20  1  0.21040000  0.65100000  0.92520000  1.0 -0.5607165996
O  O21  1  0.07643000  0.60705000  0.95310000  1.0 -0.6782679263
O  O22  1  0.04235000  0.33885000  0.01400000  1.0 -0.6084418673
O  O23  1  0.18460000  0.47620000  0.94640000  1.0 -0.6084418673
O  O24  1  0.42054000  0.07246000  0.30940000  1.0 -0.7831625048
O  O25  1  0.26728000  0.61172000  0.10460000  1.0 -0.3270659749
O  O26  1  0.01386000  0.43614000  0.87510000  1.0 -0.6380793456
O  O27  1  0.88971000  0.41569000  0.84910000  1.0 -0.6187285785
O  O28  1  0.65100000  0.21040000  0.57480000  1.0 -0.5607165996
O  O29  1  0.60705000  0.07643000  0.54690000  1.0 -0.6782679263
O  O30  1  0.33885000  0.04235000  0.48600000  1.0 -0.6084418673
O  O31  1  0.47620000  0.18460000  0.55360000  1.0 -0.6084418673
O  O32  1  0.07246000  0.42054000  0.19060000  1.0 -0.7831625048
