# DDEC6 charges by PACMAN v1.1 (https://github.com/mtap-research/PACMAN-charge/)
data_XAHPON_ASR_pacman
_symmetry_space_group_name_H-M   'P 1'
_cell_length_a   40.25740000
_cell_length_b   40.25740000
_cell_length_c   40.25740000
_cell_angle_alpha   145.54000000
_cell_angle_beta   145.54000000
_cell_angle_gamma   49.53030000
_symmetry_Int_Tables_number   1
_chemical_formula_structural   CuH13C24O5
_chemical_formula_sum   'Cu8 H104 C192 O40'
_cell_volume   20791.82711428
_cell_formula_units_Z   8
loop_
 _symmetry_equiv_pos_site_id
 _symmetry_equiv_pos_as_xyz
  1  'x, y, z'
loop_
 _atom_site_type_symbol
 _atom_site_label
 _atom_site_symmetry_multiplicity
 _atom_site_fract_x
 _atom_site_fract_y
 _atom_site_fract_z
 _atom_site_occupancy
 _atom_site_charge
Cu  Cu1  1  0.09808000  0.09569000  0.92247000  1.0 0.8998771071
Cu  Cu2  1  0.17322000  0.17561000  0.07753000  1.0 0.8998771071
Cu  Cu3  1  0.84569000  0.42322000  0.49761000  1.0 0.8998771071
Cu  Cu4  1  0.92561000  0.34808000  0.50239000  1.0 0.8998771071
Cu  Cu5  1  0.57678000  0.15431000  0.50239000  1.0 0.8998771071
Cu  Cu6  1  0.65192000  0.07439000  0.49761000  1.0 0.8998771071
Cu  Cu7  1  0.82439000  0.82678000  0.92247000  1.0 0.8998771071
Cu  Cu8  1  0.90431000  0.90192000  0.07753000  1.0 0.8998771071
H  H1  1  0.76360000  0.37310000  0.77270000  1.0 0.1099068255
H  H2  1  0.60040000  0.99090000  0.22730000  1.0 0.1099068255
H  H3  1  0.12310000  0.85040000  0.10950000  1.0 0.1099068255
H  H4  1  0.74090000  0.01360000  0.89050000  1.0 0.1099068255
H  H5  1  0.14960000  0.87690000  0.89050000  1.0 0.1099068255
H  H6  1  0.98640000  0.25910000  0.10950000  1.0 0.1099068255
H  H7  1  0.00910000  0.39960000  0.77270000  1.0 0.1099068255
H  H8  1  0.62690000  0.23640000  0.22730000  1.0 0.1099068255
H  H9  1  0.69000000  0.31000000  0.68520000  1.0 0.1302905542
H  H10  1  0.62480000  0.00480000  0.31480000  1.0 0.1302905542
H  H11  1  0.06000000  0.87480000  0.12000000  1.0 0.1302905542
H  H12  1  0.75480000  0.94000000  0.88000000  1.0 0.1302905542
H  H13  1  0.12520000  0.94000000  0.88000000  1.0 0.1302905542
H  H14  1  0.06000000  0.24520000  0.12000000  1.0 0.1302905542
H  H15  1  0.99520000  0.37520000  0.68520000  1.0 0.1302905542
H  H16  1  0.69000000  0.31000000  0.31480000  1.0 0.1302905542
H  H17  1  0.79930000  0.18080000  0.67050000  1.0 0.1205349599
H  H18  1  0.51030000  0.12880000  0.32950000  1.0 0.1205349599
H  H19  1  0.93080000  0.76030000  0.88150000  1.0 0.1205349599
H  H20  1  0.87880000  0.04930000  0.11850000  1.0 0.1205349599
H  H21  1  0.23970000  0.06920000  0.11850000  1.0 0.1205349599
H  H22  1  0.95070000  0.12120000  0.88150000  1.0 0.1205349599
H  H23  1  0.87120000  0.48970000  0.67050000  1.0 0.1205349599
H  H24  1  0.81920000  0.20070000  0.32950000  1.0 0.1205349599
H  H25  1  0.87290000  0.24390000  0.75800000  1.0 0.1205349599
H  H26  1  0.48590000  0.11490000  0.24200000  1.0 0.1205349599
H  H27  1  0.99390000  0.73590000  0.87100000  1.0 0.1205349599
H  H28  1  0.86490000  0.12290000  0.12900000  1.0 0.1205349599
H  H29  1  0.26410000  0.00610000  0.12900000  1.0 0.1205349599
H  H30  1  0.87710000  0.13510000  0.87100000  1.0 0.1205349599
H  H31  1  0.88510000  0.51410000  0.75800000  1.0 0.1205349599
H  H32  1  0.75610000  0.12710000  0.24200000  1.0 0.1205349599
H  H33  1  0.10450000  0.39960000  0.11250000  1.0 0.1205349599
H  H34  1  0.28710000  0.99200000  0.88750000  1.0 0.1205349599
H  H35  1  0.14960000  0.53710000  0.79510000  1.0 0.1205349599
H  H36  1  0.74200000  0.35450000  0.20490000  1.0 0.1205349599
H  H37  1  0.46290000  0.85040000  0.20490000  1.0 0.1205349599
H  H38  1  0.64550000  0.25800000  0.79510000  1.0 0.1205349599
H  H39  1  0.00800000  0.71290000  0.11250000  1.0 0.1205349599
H  H40  1  0.60040000  0.89550000  0.88750000  1.0 0.1205349599
H  H41  1  0.13200000  0.32960000  0.11520000  1.0 0.1302905542
H  H42  1  0.21440000  0.01680000  0.88480000  1.0 0.1302905542
H  H43  1  0.07960000  0.46440000  0.69760000  1.0 0.1302905542
H  H44  1  0.76680000  0.38200000  0.30240000  1.0 0.1302905542
H  H45  1  0.53560000  0.92040000  0.30240000  1.0 0.1302905542
H  H46  1  0.61800000  0.23320000  0.69760000  1.0 0.1302905542
H  H47  1  0.98320000  0.78560000  0.11520000  1.0 0.1302905542
H  H48  1  0.67040000  0.86800000  0.88480000  1.0 0.1302905542
H  H49  1  0.04010000  0.20100000  0.88070000  1.0 0.1205349599
H  H50  1  0.32030000  0.15940000  0.11930000  1.0 0.1205349599
H  H51  1  0.95100000  0.57030000  0.66090000  1.0 0.1205349599
H  H52  1  0.90940000  0.29010000  0.33910000  1.0 0.1205349599
H  H53  1  0.42970000  0.04900000  0.33910000  1.0 0.1205349599
H  H54  1  0.70990000  0.09060000  0.66090000  1.0 0.1205349599
H  H55  1  0.84060000  0.67970000  0.88070000  1.0 0.1205349599
H  H56  1  0.79900000  0.95990000  0.11930000  1.0 0.1205349599
H  H57  1  0.01250000  0.27090000  0.87800000  1.0 0.1205349599
H  H58  1  0.39290000  0.13450000  0.12200000  1.0 0.1205349599
H  H59  1  0.02090000  0.64290000  0.75840000  1.0 0.1205349599
H  H60  1  0.88450000  0.26250000  0.24160000  1.0 0.1205349599
H  H61  1  0.35710000  0.97910000  0.24160000  1.0 0.1205349599
H  H62  1  0.73750000  0.11550000  0.75840000  1.0 0.1205349599
H  H63  1  0.86550000  0.60710000  0.87800000  1.0 0.1205349599
H  H64  1  0.72910000  0.98750000  0.12200000  1.0 0.1205349599
H  H65  1  0.11770000  0.42120000  0.07970000  1.0 0.14296007
H  H66  1  0.34150000  0.03800000  0.92030000  1.0 0.14296007
H  H67  1  0.17120000  0.59150000  0.80350000  1.0 0.14296007
H  H68  1  0.78800000  0.36770000  0.19650000  1.0 0.14296007
H  H69  1  0.40850000  0.82880000  0.19650000  1.0 0.14296007
H  H70  1  0.63230000  0.21200000  0.80350000  1.0 0.14296007
H  H71  1  0.96200000  0.65850000  0.07970000  1.0 0.14296007
H  H72  1  0.57880000  0.88230000  0.92030000  1.0 0.14296007
H  H73  1  0.81490000  0.39900000  0.79150000  1.0 0.1205349599
H  H74  1  0.60750000  0.02340000  0.20850000  1.0 0.1205349599
H  H75  1  0.14900000  0.85750000  0.08410000  1.0 0.1205349599
H  H76  1  0.77340000  0.06490000  0.91590000  1.0 0.1205349599
H  H77  1  0.14250000  0.85100000  0.91590000  1.0 0.1205349599
H  H78  1  0.93510000  0.22660000  0.08410000  1.0 0.1205349599
H  H79  1  0.97660000  0.39250000  0.79150000  1.0 0.1205349599
H  H80  1  0.60100000  0.18510000  0.20850000  1.0 0.1205349599
H  H81  1  0.88840000  0.46300000  0.88100000  1.0 0.1205349599
H  H82  1  0.58200000  0.00740000  0.11900000  1.0 0.1205349599
H  H83  1  0.21300000  0.83200000  0.07460000  1.0 0.1205349599
H  H84  1  0.75740000  0.13840000  0.92540000  1.0 0.1205349599
H  H85  1  0.16800000  0.78700000  0.92540000  1.0 0.1205349599
H  H86  1  0.86160000  0.24260000  0.07460000  1.0 0.1205349599
H  H87  1  0.99260000  0.41800000  0.88100000  1.0 0.1205349599
H  H88  1  0.53700000  0.11160000  0.11900000  1.0 0.1205349599
H  H89  1  0.94080000  0.32190000  0.88190000  1.0 0.1099068255
H  H90  1  0.44000000  0.05890000  0.11810000  1.0 0.1099068255
H  H91  1  0.07190000  0.69000000  0.88110000  1.0 0.1099068255
H  H92  1  0.80890000  0.19080000  0.11890000  1.0 0.1099068255
H  H93  1  0.31000000  0.92810000  0.11890000  1.0 0.1099068255
H  H94  1  0.80920000  0.19110000  0.88110000  1.0 0.1099068255
H  H95  1  0.94110000  0.56000000  0.88190000  1.0 0.1099068255
H  H96  1  0.67810000  0.05920000  0.11810000  1.0 0.1099068255
H  H97  1  0.08800000  0.52920000  0.09140000  1.0 0.3489484473
H  H98  1  0.43780000  0.99660000  0.90860000  1.0 0.3489484473
H  H99  1  0.27920000  0.68780000  0.94120000  1.0 0.3489484473
H  H100  1  0.74660000  0.33800000  0.05880000  1.0 0.3489484473
H  H101  1  0.31220000  0.72080000  0.05880000  1.0 0.3489484473
H  H102  1  0.66200000  0.25340000  0.94120000  1.0 0.3489484473
H  H103  1  0.00340000  0.56220000  0.09140000  1.0 0.3489484473
H  H104  1  0.47080000  0.91200000  0.90860000  1.0 0.3489484473
C  C1  1  0.10140000  0.21040000  0.99080000  1.0 0.561559087
C  C2  1  0.21960000  0.11060000  0.00920000  1.0 0.561559087
C  C3  1  0.96040000  0.46960000  0.60900000  1.0 0.561559087
C  C4  1  0.86060000  0.35140000  0.39100000  1.0 0.561559087
C  C5  1  0.53040000  0.03960000  0.39100000  1.0 0.561559087
C  C6  1  0.64860000  0.13940000  0.60900000  1.0 0.561559087
C  C7  1  0.88940000  0.78040000  0.99080000  1.0 0.561559087
C  C8  1  0.78960000  0.89860000  0.00920000  1.0 0.561559087
C  C9  1  0.82536000  0.31456000  0.77380000  1.0 0.0800113611
C  C10  1  0.54076000  0.05156000  0.22620000  1.0 0.0800113611
C  C11  1  0.06456000  0.79076000  0.98920000  1.0 0.0800113611
C  C12  1  0.80156000  0.07536000  0.01080000  1.0 0.0800113611
C  C13  1  0.20924000  0.93544000  0.01080000  1.0 0.0800113611
C  C14  1  0.92464000  0.19844000  0.98920000  1.0 0.0800113611
C  C15  1  0.94844000  0.45924000  0.77380000  1.0 0.0800113611
C  C16  1  0.68544000  0.17464000  0.22620000  1.0 0.0800113611
C  C17  1  0.77082000  0.33432000  0.75210000  1.0 -0.1506017136
C  C18  1  0.58222000  0.01872000  0.24790000  1.0 -0.1506017136
C  C19  1  0.08432000  0.83222000  0.06350000  1.0 -0.1506017136
C  C20  1  0.76872000  0.02082000  0.93650000  1.0 -0.1506017136
C  C21  1  0.16778000  0.91568000  0.93650000  1.0 -0.1506017136
C  C22  1  0.97918000  0.23128000  0.06350000  1.0 -0.1506017136
C  C23  1  0.98128000  0.41778000  0.75210000  1.0 -0.1506017136
C  C24  1  0.66568000  0.22918000  0.24790000  1.0 -0.1506017136
C  C25  1  0.72697000  0.29667000  0.69990000  1.0 -0.0797724469
C  C26  1  0.59677000  0.02707000  0.30010000  1.0 -0.0797724469
C  C27  1  0.04667000  0.84677000  0.06970000  1.0 -0.0797724469
C  C28  1  0.77707000  0.97697000  0.93030000  1.0 -0.0797724469
C  C29  1  0.15323000  0.95333000  0.93030000  1.0 -0.0797724469
C  C30  1  0.02303000  0.22293000  0.06970000  1.0 -0.0797724469
C  C31  1  0.97293000  0.40323000  0.69990000  1.0 -0.0797724469
C  C32  1  0.70333000  0.27303000  0.30010000  1.0 -0.0797724469
C  C33  1  0.73767000  0.23937000  0.66950000  1.0 -0.0561181937
C  C34  1  0.56987000  0.06817000  0.33050000  1.0 -0.0561181937
C  C35  1  0.98937000  0.81987000  0.00170000  1.0 -0.0561181937
C  C36  1  0.81817000  0.98767000  0.99830000  1.0 -0.0561181937
C  C37  1  0.18013000  0.01063000  0.99830000  1.0 -0.0561181937
C  C38  1  0.01233000  0.18183000  0.00170000  1.0 -0.0561181937
C  C39  1  0.93183000  0.43013000  0.66950000  1.0 -0.0561181937
C  C40  1  0.76063000  0.26233000  0.33050000  1.0 -0.0561181937
C  C41  1  0.79211000  0.21961000  0.69110000  1.0 -0.0797724469
C  C42  1  0.52851000  0.10101000  0.30890000  1.0 -0.0797724469
C  C43  1  0.96961000  0.77851000  0.92750000  1.0 -0.0797724469
C  C44  1  0.85101000  0.04211000  0.07250000  1.0 -0.0797724469
C  C45  1  0.22149000  0.03039000  0.07250000  1.0 -0.0797724469
C  C46  1  0.95789000  0.14899000  0.92750000  1.0 -0.0797724469
C  C47  1  0.89899000  0.47149000  0.69110000  1.0 -0.0797724469
C  C48  1  0.78039000  0.20789000  0.30890000  1.0 -0.0797724469
C  C49  1  0.83596000  0.25716000  0.74320000  1.0 -0.1614649689
C  C50  1  0.51396000  0.09276000  0.25680000  1.0 -0.1614649689
C  C51  1  0.00716000  0.76396000  0.92120000  1.0 -0.1614649689
C  C52  1  0.84276000  0.08596000  0.07880000  1.0 -0.1614649689
C  C53  1  0.23604000  0.99284000  0.07880000  1.0 -0.1614649689
C  C54  1  0.91404000  0.15724000  0.92120000  1.0 -0.1614649689
C  C55  1  0.90724000  0.48604000  0.74320000  1.0 -0.1614649689
C  C56  1  0.74284000  0.16404000  0.25680000  1.0 -0.1614649689
C  C57  1  0.05582000  0.34202000  0.99500000  1.0 0.0909282606
C  C58  1  0.34702000  0.06082000  0.00500000  1.0 0.0909282606
C  C59  1  0.09202000  0.59702000  0.78620000  1.0 0.0909282606
C  C60  1  0.81082000  0.30582000  0.21380000  1.0 0.0909282606
C  C61  1  0.40298000  0.90798000  0.21380000  1.0 0.0909282606
C  C62  1  0.69418000  0.18918000  0.78620000  1.0 0.0909282606
C  C63  1  0.93918000  0.65298000  0.99500000  1.0 0.0909282606
C  C64  1  0.65798000  0.94418000  0.00500000  1.0 0.0909282606
C  C65  1  0.09152000  0.35952000  0.06580000  1.0 -0.1614649689
C  C66  1  0.29372000  0.02572000  0.93420000  1.0 -0.1614649689
C  C67  1  0.10952000  0.54372000  0.76800000  1.0 -0.1614649689
C  C68  1  0.77572000  0.34152000  0.23200000  1.0 -0.1614649689
C  C69  1  0.45628000  0.89048000  0.23200000  1.0 -0.1614649689
C  C70  1  0.65848000  0.22428000  0.76800000  1.0 -0.1614649689
C  C71  1  0.97428000  0.70628000  0.06580000  1.0 -0.1614649689
C  C72  1  0.64048000  0.90848000  0.93420000  1.0 -0.1614649689
C  C73  1  0.10796000  0.31776000  0.06740000  1.0 -0.0725211032
C  C74  1  0.25036000  0.04056000  0.93260000  1.0 -0.0725211032
C  C75  1  0.06776000  0.50036000  0.70980000  1.0 -0.0725211032
C  C76  1  0.79056000  0.35796000  0.29020000  1.0 -0.0725211032
C  C77  1  0.49964000  0.93224000  0.29020000  1.0 -0.0725211032
C  C78  1  0.64204000  0.20944000  0.70980000  1.0 -0.0725211032
C  C79  1  0.95944000  0.74964000  0.06740000  1.0 -0.0725211032
C  C80  1  0.68224000  0.89204000  0.93260000  1.0 -0.0725211032
C  C81  1  0.08871000  0.25851000  0.99820000  1.0 -0.0472322876
C  C82  1  0.26031000  0.09051000  0.00180000  1.0 -0.0472322876
C  C83  1  0.00851000  0.51031000  0.66980000  1.0 -0.0472322876
C  C84  1  0.84051000  0.33871000  0.33020000  1.0 -0.0472322876
C  C85  1  0.48969000  0.99149000  0.33020000  1.0 -0.0472322876
C  C86  1  0.66129000  0.15949000  0.66980000  1.0 -0.0472322876
C  C87  1  0.90949000  0.73969000  0.99820000  1.0 -0.0472322876
C  C88  1  0.74149000  0.91129000  0.00180000  1.0 -0.0472322876
C  C89  1  0.05311000  0.24101000  0.92750000  1.0 -0.0875583642
C  C90  1  0.31351000  0.12561000  0.07250000  1.0 -0.0875583642
C  C91  1  0.99101000  0.56351000  0.68790000  1.0 -0.0875583642
C  C92  1  0.87561000  0.30311000  0.31210000  1.0 -0.0875583642
C  C93  1  0.43649000  0.00899000  0.31210000  1.0 -0.0875583642
C  C94  1  0.69689000  0.12439000  0.68790000  1.0 -0.0875583642
C  C95  1  0.87439000  0.68649000  0.92750000  1.0 -0.0875583642
C  C96  1  0.75899000  0.94689000  0.07250000  1.0 -0.0875583642
C  C97  1  0.03667000  0.28277000  0.92590000  1.0 -0.1614649689
C  C98  1  0.35687000  0.11077000  0.07410000  1.0 -0.1614649689
C  C99  1  0.03277000  0.60687000  0.74610000  1.0 -0.1614649689
C  C100  1  0.86077000  0.28667000  0.25390000  1.0 -0.1614649689
C  C101  1  0.39313000  0.96723000  0.25390000  1.0 -0.1614649689
C  C102  1  0.71333000  0.13923000  0.74610000  1.0 -0.1614649689
C  C103  1  0.88923000  0.64313000  0.92590000  1.0 -0.1614649689
C  C104  1  0.71723000  0.96333000  0.07410000  1.0 -0.1614649689
C  C105  1  0.03405000  0.38575000  0.99050000  1.0 0.0383173193
C  C106  1  0.39525000  0.04355000  0.00950000  1.0 0.0383173193
C  C107  1  0.13575000  0.64525000  0.85170000  1.0 0.0383173193
C  C108  1  0.79355000  0.28405000  0.14830000  1.0 0.0383173193
C  C109  1  0.35475000  0.86425000  0.14830000  1.0 0.0383173193
C  C110  1  0.71595000  0.20645000  0.85170000  1.0 0.0383173193
C  C111  1  0.95645000  0.60475000  0.99050000  1.0 0.0383173193
C  C112  1  0.61425000  0.96595000  0.00950000  1.0 0.0383173193
C  C113  1  0.97526000  0.38966000  0.93700000  1.0 0.0271123972
C  C114  1  0.45266000  0.03826000  0.06300000  1.0 0.0271123972
C  C115  1  0.13966000  0.70266000  0.91440000  1.0 0.0271123972
C  C116  1  0.78826000  0.22526000  0.08560000  1.0 0.0271123972
C  C117  1  0.29734000  0.86034000  0.08560000  1.0 0.0271123972
C  C118  1  0.77474000  0.21174000  0.91440000  1.0 0.0271123972
C  C119  1  0.96174000  0.54734000  0.93700000  1.0 0.0271123972
C  C120  1  0.61034000  0.02474000  0.06300000  1.0 0.0271123972
C  C121  1  0.96043000  0.43163000  0.93660000  1.0 0.0459257083
C  C122  1  0.49503000  0.02383000  0.06340000  1.0 0.0459257083
C  C123  1  0.18163000  0.74503000  0.97120000  1.0 0.0459257083
C  C124  1  0.77383000  0.21043000  0.02880000  1.0 0.0459257083
C  C125  1  0.25497000  0.81837000  0.02880000  1.0 0.0459257083
C  C126  1  0.78957000  0.22617000  0.97120000  1.0 0.0459257083
C  C127  1  0.97617000  0.50497000  0.93660000  1.0 0.0459257083
C  C128  1  0.56837000  0.03957000  0.06340000  1.0 0.0459257083
C  C129  1  0.00440000  0.46980000  0.98980000  1.0 -0.137972349
C  C130  1  0.48000000  0.01460000  0.01020000  1.0 -0.137972349
C  C131  1  0.21980000  0.73000000  0.96540000  1.0 -0.137972349
C  C132  1  0.76460000  0.25440000  0.03460000  1.0 -0.1327010483
C  C133  1  0.27000000  0.78020000  0.03460000  1.0 -0.137972349
C  C134  1  0.74560000  0.23540000  0.96540000  1.0 -0.137972349
C  C135  1  0.98540000  0.52000000  0.98980000  1.0 -0.137972349
C  C136  1  0.53020000  0.99560000  0.01020000  1.0 -0.1327010483
C  C137  1  0.06319000  0.46589000  0.04330000  1.0 0.2579591147
C  C138  1  0.42259000  0.01989000  0.95670000  1.0 0.2579591147
C  C139  1  0.21589000  0.67259000  0.90270000  1.0 0.2579591147
C  C140  1  0.76989000  0.31319000  0.09730000  1.0 0.2579591147
C  C141  1  0.32741000  0.78411000  0.09730000  1.0 0.2579591147
C  C142  1  0.68681000  0.23011000  0.90270000  1.0 0.2579591147
C  C143  1  0.98011000  0.57741000  0.04330000  1.0 0.2579591147
C  C144  1  0.53411000  0.93681000  0.95670000  1.0 0.2579591147
C  C145  1  0.07802000  0.42382000  0.04360000  1.0 -0.2523510304
C  C146  1  0.38022000  0.03442000  0.95640000  1.0 -0.2523510304
C  C147  1  0.17382000  0.63022000  0.84580000  1.0 -0.2523510304
C  C148  1  0.78442000  0.32802000  0.15420000  1.0 -0.2523510304
C  C149  1  0.36978000  0.82618000  0.15420000  1.0 -0.2523510304
C  C150  1  0.67198000  0.21558000  0.84580000  1.0 -0.2523510304
C  C151  1  0.96558000  0.61978000  0.04360000  1.0 -0.2523510304
C  C152  1  0.57618000  0.92198000  0.95640000  1.0 -0.2523510304
C  C153  1  0.87154000  0.35514000  0.82960000  1.0 0.0800113611
C  C154  1  0.52554000  0.04194000  0.17040000  1.0 0.0800113611
C  C155  1  0.10514000  0.77554000  0.98360000  1.0 0.0800113611
C  C156  1  0.79194000  0.12154000  0.01640000  1.0 0.0800113611
C  C157  1  0.22446000  0.89486000  0.01640000  1.0 0.0800113611
C  C158  1  0.87846000  0.20806000  0.98360000  1.0 0.0800113611
C  C159  1  0.95806000  0.47446000  0.82960000  1.0 0.0800113611
C  C160  1  0.64486000  0.12846000  0.17040000  1.0 0.0800113611
C  C161  1  0.85470000  0.39650000  0.82760000  1.0 -0.1506017136
C  C162  1  0.56890000  0.02710000  0.17240000  1.0 -0.1506017136
C  C163  1  0.14650000  0.81890000  0.04180000  1.0 -0.1506017136
C  C164  1  0.77710000  0.10470000  0.95820000  1.0 -0.1506017136
C  C165  1  0.18110000  0.85350000  0.95820000  1.0 -0.1506017136
C  C166  1  0.89530000  0.22290000  0.04180000  1.0 -0.1506017136
C  C167  1  0.97290000  0.43110000  0.82760000  1.0 -0.1506017136
C  C168  1  0.60350000  0.14530000  0.17240000  1.0 -0.1506017136
C  C169  1  0.69240000  0.19690000  0.61070000  1.0 0.5697489216
C  C170  1  0.58620000  0.08170000  0.38930000  1.0 0.5697489216
C  C171  1  0.94690000  0.83620000  0.00450000  1.0 0.5697489216
C  C172  1  0.83170000  0.94240000  0.99550000  1.0 0.5697489216
C  C173  1  0.16380000  0.05310000  0.99550000  1.0 0.5697489216
C  C174  1  0.05760000  0.16830000  0.00450000  1.0 0.5697489216
C  C175  1  0.91830000  0.41380000  0.61070000  1.0 0.5697489216
C  C176  1  0.80310000  0.30760000  0.38930000  1.0 0.5697489216
C  C177  1  0.89911000  0.43431000  0.88120000  1.0 -0.1614649689
C  C178  1  0.55311000  0.01791000  0.11880000  1.0 -0.1614649689
C  C179  1  0.18431000  0.80311000  0.03520000  1.0 -0.1614649689
C  C180  1  0.76791000  0.14911000  0.96480000  1.0 -0.1614649689
C  C181  1  0.19689000  0.81569000  0.96480000  1.0 -0.1614649689
C  C182  1  0.85089000  0.23209000  0.03520000  1.0 -0.1614649689
C  C183  1  0.98209000  0.44689000  0.88120000  1.0 -0.1614649689
C  C184  1  0.56569000  0.10089000  0.11880000  1.0 -0.1614649689
C  C185  1  0.93066000  0.35106000  0.88260000  1.0 -0.2004815542
C  C186  1  0.46846000  0.04806000  0.11740000  1.0 -0.2004815542
C  C187  1  0.10106000  0.71846000  0.92040000  1.0 -0.2004815542
C  C188  1  0.79806000  0.18066000  0.07960000  1.0 -0.2004815542
C  C189  1  0.28154000  0.89894000  0.07960000  1.0 -0.2004815542
C  C190  1  0.81934000  0.20194000  0.92040000  1.0 -0.2004815542
C  C191  1  0.95194000  0.53154000  0.88260000  1.0 -0.2004815542
C  C192  1  0.64894000  0.06934000  0.11740000  1.0 -0.2004815542
O  O1  1  0.08206000  0.15856000  0.93110000  1.0 -0.4689213091
O  O2  1  0.22746000  0.15096000  0.06890000  1.0 -0.4689213091
O  O3  1  0.90856000  0.47746000  0.57650000  1.0 -0.4689213091
O  O4  1  0.90096000  0.33206000  0.42350000  1.0 -0.4689213091
O  O5  1  0.52254000  0.09144000  0.42350000  1.0 -0.4689213091
O  O6  1  0.66794000  0.09904000  0.57650000  1.0 -0.4689213091
O  O7  1  0.84904000  0.77254000  0.93110000  1.0 -0.4689213091
O  O8  1  0.84144000  0.91794000  0.06890000  1.0 -0.4689213091
O  O9  1  0.64048000  0.20278000  0.57590000  1.0 -0.436891006
O  O10  1  0.62688000  0.06458000  0.42410000  1.0 -0.436891006
O  O11  1  0.95278000  0.87688000  0.06230000  1.0 -0.436891006
O  O12  1  0.81458000  0.89048000  0.93770000  1.0 -0.436891006
O  O13  1  0.12312000  0.04722000  0.93770000  1.0 -0.436891006
O  O14  1  0.10952000  0.18542000  0.06230000  1.0 -0.436891006
O  O15  1  0.93542000  0.37312000  0.57590000  1.0 -0.436891006
O  O16  1  0.79722000  0.35952000  0.42410000  1.0 -0.436891006
O  O17  1  0.70666000  0.13716000  0.57850000  1.0 -0.619686538
O  O18  1  0.55866000  0.12816000  0.42150000  1.0 -0.619686538
O  O19  1  0.88716000  0.80866000  0.93050000  1.0 -0.619686538
O  O20  1  0.87816000  0.95666000  0.06950000  1.0 -0.619686538
O  O21  1  0.19134000  0.11284000  0.06950000  1.0 -0.619686538
O  O22  1  0.04334000  0.12184000  0.93050000  1.0 -0.619686538
O  O23  1  0.87184000  0.44134000  0.57850000  1.0 -0.619686538
O  O24  1  0.86284000  0.29334000  0.42150000  1.0 -0.619686538
O  O25  1  0.14139000  0.22959000  0.06460000  1.0 -0.5931983308
O  O26  1  0.16499000  0.07679000  0.93540000  1.0 -0.5931983308
O  O27  1  0.97959000  0.41499000  0.58820000  1.0 -0.5931983308
O  O28  1  0.82679000  0.39139000  0.41180000  1.0 -0.5931983308
O  O29  1  0.58501000  0.02041000  0.41180000  1.0 -0.5931983308
O  O30  1  0.60861000  0.17321000  0.58820000  1.0 -0.5931983308
O  O31  1  0.92321000  0.83501000  0.06460000  1.0 -0.5931983308
O  O32  1  0.77041000  0.85861000  0.93540000  1.0 -0.5931983308
O  O33  1  0.10430000  0.50440000  0.09530000  1.0 -0.3892761969
O  O34  1  0.40910000  0.00900000  0.90470000  1.0 -0.3892761969
O  O35  1  0.25440000  0.65910000  0.90010000  1.0 -0.3892761969
O  O36  1  0.75900000  0.35430000  0.09990000  1.0 -0.3892761969
O  O37  1  0.34090000  0.74560000  0.09990000  1.0 -0.3892761969
O  O38  1  0.64570000  0.24100000  0.90010000  1.0 -0.3892761969
O  O39  1  0.99100000  0.59090000  0.09530000  1.0 -0.3892761969
O  O40  1  0.49560000  0.89570000  0.90470000  1.0 -0.3892761969
