# DDEC6 charges by PACMAN v1.1 (https://github.com/mtap-research/PACMAN-charge/)
data_XAHPIJ_FSR_pacman
_symmetry_space_group_name_H-M   'P 1'
_cell_length_a   20.34650000
_cell_length_b   20.34650000
_cell_length_c   13.99560000
_cell_angle_alpha   83.55950000
_cell_angle_beta   96.44050000
_cell_angle_gamma   138.69000000
_symmetry_Int_Tables_number   1
_chemical_formula_structural   NdH28C28N3O8
_chemical_formula_sum   'Nd4 H112 C112 N12 O32'
_cell_volume   3797.16176434
_cell_formula_units_Z   4
loop_
 _symmetry_equiv_pos_site_id
 _symmetry_equiv_pos_as_xyz
  1  'x, y, z'
loop_
 _atom_site_type_symbol
 _atom_site_label
 _atom_site_symmetry_multiplicity
 _atom_site_fract_x
 _atom_site_fract_y
 _atom_site_fract_z
 _atom_site_occupancy
 _atom_site_charge
Nd  Nd1  1  0.50650000  0.90478000  0.53182000  1.0 1.9918081238
Nd  Nd2  1  0.90478000  0.50650000  0.96818000  1.0 1.9918081238
Nd  Nd3  1  0.49350000  0.09522000  0.46818000  1.0 1.9918081238
Nd  Nd4  1  0.09522000  0.49350000  0.03182000  1.0 1.9918081238
H  H1  1  0.74020000  0.56732000  0.11196000  1.0 0.1194653222
H  H2  1  0.71606000  0.65428000  0.14861000  1.0 0.1093064967
H  H3  1  0.98361000  0.90601000  0.05224000  1.0 0.0998146851
H  H4  1  0.00796000  0.81840000  0.01144000  1.0 0.1093064967
H  H5  1  0.58455000  0.92481000  0.75639000  1.0 0.3793806061
H  H6  1  0.64201000  0.96773000  0.67763000  1.0 0.3345565497
H  H7  1  0.67658000  0.72854000  0.10579000  1.0 0.1093064967
H  H8  1  0.64620000  0.81220000  0.13485000  1.0 0.1194653222
H  H9  1  0.96957000  0.97839000  0.14174000  1.0 0.0998146851
H  H10  1  0.93622000  0.06274000  0.16818000  1.0 0.1093064967
H  H11  1  0.68953000  0.02241000  0.29406000  1.0 0.1194653222
H  H12  1  0.70116000  0.22710000  0.21386000  1.0 0.1291462555
H  H13  1  0.88571000  0.24303000  0.10064000  1.0 0.1291462555
H  H14  1  0.69581000  0.95477000  0.17300000  1.0 0.088650595
H  H15  1  0.28123000  0.70065000  0.59847000  1.0 0.0606178588
H  H16  1  0.12892000  0.48388000  0.74117000  1.0 0.0808280279
H  H17  1  0.11611000  0.51455000  0.63912000  1.0 0.0808280279
H  H18  1  0.15049000  0.57621000  0.72828000  1.0 0.088650595
H  H19  1  0.24591000  0.51115000  0.76435000  1.0 0.067477623
H  H20  1  0.35169000  0.62299000  0.76828000  1.0 0.0606178588
H  H21  1  0.31708000  0.56128000  0.67907000  1.0 0.0513193636
H  H22  1  0.26150000  0.62716000  0.56872000  1.0 0.0606178588
H  H23  1  0.16584000  0.48898000  0.76978000  1.0 0.0808280279
H  H24  1  0.16745000  0.47681000  0.66171000  1.0 0.0808280279
H  H25  1  0.14230000  0.52885000  0.68772000  1.0 0.0272166617
H  H26  1  0.29181000  0.58443000  0.84118000  1.0 0.0808280279
H  H27  1  0.36666000  0.69818000  0.81404000  1.0 0.0998146851
H  H28  1  0.38799000  0.64305000  0.78670000  1.0 0.0808280279
H  H29  1  0.56732000  0.74020000  0.38804000  1.0 0.1194653222
H  H30  1  0.65428000  0.71606000  0.35139000  1.0 0.1093064967
H  H31  1  0.90601000  0.98361000  0.44776000  1.0 0.0998146851
H  H32  1  0.81840000  0.00796000  0.48856000  1.0 0.1093064967
H  H33  1  0.92481000  0.58455000  0.74361000  1.0 0.3793806061
H  H34  1  0.96773000  0.64201000  0.82237000  1.0 0.3345565497
H  H35  1  0.72854000  0.67658000  0.39421000  1.0 0.1093064967
H  H36  1  0.81220000  0.64620000  0.36515000  1.0 0.1194653222
H  H37  1  0.97839000  0.96957000  0.35826000  1.0 0.1093064967
H  H38  1  0.06274000  0.93622000  0.33182000  1.0 0.1093064967
H  H39  1  0.02241000  0.68953000  0.20594000  1.0 0.1194653222
H  H40  1  0.22710000  0.70116000  0.28614000  1.0 0.1291462555
H  H41  1  0.24303000  0.88571000  0.39936000  1.0 0.1291462555
H  H42  1  0.95477000  0.69581000  0.32700000  1.0 0.088650595
H  H43  1  0.70065000  0.28123000  0.90153000  1.0 0.0606178588
H  H44  1  0.48388000  0.12892000  0.75883000  1.0 0.0808280279
H  H45  1  0.51455000  0.11611000  0.86088000  1.0 0.0808280279
H  H46  1  0.57621000  0.15049000  0.77172000  1.0 0.088650595
H  H47  1  0.51115000  0.24591000  0.73565000  1.0 0.067477623
H  H48  1  0.62299000  0.35169000  0.73172000  1.0 0.0606178588
H  H49  1  0.56128000  0.31708000  0.82093000  1.0 0.0513193636
H  H50  1  0.62716000  0.26150000  0.93128000  1.0 0.0606178588
H  H51  1  0.48898000  0.16584000  0.73022000  1.0 0.0808280279
H  H52  1  0.47681000  0.16745000  0.83829000  1.0 0.0808280279
H  H53  1  0.52885000  0.14230000  0.81228000  1.0 0.0272166617
H  H54  1  0.58443000  0.29181000  0.65882000  1.0 0.0808280279
H  H55  1  0.69818000  0.36666000  0.68596000  1.0 0.0998146851
H  H56  1  0.64305000  0.38799000  0.71330000  1.0 0.088650595
H  H57  1  0.25980000  0.43268000  0.88804000  1.0 0.1194653222
H  H58  1  0.28394000  0.34572000  0.85139000  1.0 0.1093064967
H  H59  1  0.01639000  0.09399000  0.94776000  1.0 0.0998146851
H  H60  1  0.99204000  0.18160000  0.98856000  1.0 0.1093064967
H  H61  1  0.41545000  0.07519000  0.24361000  1.0 0.3793806061
H  H62  1  0.35799000  0.03227000  0.32237000  1.0 0.3345565497
H  H63  1  0.32342000  0.27146000  0.89421000  1.0 0.1093064967
H  H64  1  0.35380000  0.18780000  0.86515000  1.0 0.1194653222
H  H65  1  0.03043000  0.02161000  0.85826000  1.0 0.0998146851
H  H66  1  0.06378000  0.93726000  0.83182000  1.0 0.1093064967
H  H67  1  0.31047000  0.97759000  0.70594000  1.0 0.1194653222
H  H68  1  0.29884000  0.77290000  0.78614000  1.0 0.1291462555
H  H69  1  0.11429000  0.75697000  0.89936000  1.0 0.1291462555
H  H70  1  0.30419000  0.04523000  0.82700000  1.0 0.088650595
H  H71  1  0.71877000  0.29935000  0.40153000  1.0 0.0606178588
H  H72  1  0.87108000  0.51612000  0.25883000  1.0 0.0808280279
H  H73  1  0.88389000  0.48545000  0.36088000  1.0 0.0808280279
H  H74  1  0.84951000  0.42379000  0.27172000  1.0 0.088650595
H  H75  1  0.75409000  0.48885000  0.23565000  1.0 0.067477623
H  H76  1  0.64831000  0.37701000  0.23172000  1.0 0.0606178588
H  H77  1  0.68292000  0.43872000  0.32093000  1.0 0.0513193636
H  H78  1  0.73850000  0.37284000  0.43128000  1.0 0.0606178588
H  H79  1  0.83416000  0.51102000  0.23022000  1.0 0.0808280279
H  H80  1  0.83255000  0.52319000  0.33829000  1.0 0.0808280279
H  H81  1  0.85770000  0.47116000  0.31228000  1.0 0.0272166617
H  H82  1  0.70819000  0.41557000  0.15882000  1.0 0.0808280279
H  H83  1  0.63334000  0.30182000  0.18596000  1.0 0.0998146851
H  H84  1  0.61201000  0.35695000  0.21330000  1.0 0.0808280279
H  H85  1  0.43268000  0.25980000  0.61196000  1.0 0.1194653222
H  H86  1  0.34572000  0.28394000  0.64861000  1.0 0.1093064967
H  H87  1  0.09399000  0.01639000  0.55224000  1.0 0.0998146851
H  H88  1  0.18160000  0.99204000  0.51144000  1.0 0.1093064967
H  H89  1  0.07519000  0.41545000  0.25639000  1.0 0.3793806061
H  H90  1  0.03227000  0.35799000  0.17763000  1.0 0.3345565497
H  H91  1  0.27146000  0.32342000  0.60579000  1.0 0.1093064967
H  H92  1  0.18780000  0.35380000  0.63485000  1.0 0.1194653222
H  H93  1  0.02161000  0.03043000  0.64174000  1.0 0.0998146851
H  H94  1  0.93726000  0.06378000  0.66818000  1.0 0.1093064967
H  H95  1  0.97759000  0.31047000  0.79406000  1.0 0.1194653222
H  H96  1  0.77290000  0.29884000  0.71386000  1.0 0.1291462555
H  H97  1  0.75697000  0.11429000  0.60064000  1.0 0.1291462555
H  H98  1  0.04523000  0.30419000  0.67300000  1.0 0.088650595
H  H99  1  0.29935000  0.71877000  0.09847000  1.0 0.0606178588
H  H100  1  0.51612000  0.87108000  0.24117000  1.0 0.0808280279
H  H101  1  0.48545000  0.88389000  0.13912000  1.0 0.0808280279
H  H102  1  0.42379000  0.84951000  0.22828000  1.0 0.088650595
H  H103  1  0.48885000  0.75409000  0.26435000  1.0 0.067477623
H  H104  1  0.37701000  0.64831000  0.26828000  1.0 0.0606178588
H  H105  1  0.43872000  0.68292000  0.17907000  1.0 0.0513193636
H  H106  1  0.37284000  0.73850000  0.06872000  1.0 0.0606178588
H  H107  1  0.51102000  0.83416000  0.26978000  1.0 0.0808280279
H  H108  1  0.52319000  0.83255000  0.16171000  1.0 0.0808280279
H  H109  1  0.47116000  0.85771000  0.18772000  1.0 0.0272166617
H  H110  1  0.41557000  0.70819000  0.34118000  1.0 0.0808280279
H  H111  1  0.30182000  0.63334000  0.31404000  1.0 0.0998146851
H  H112  1  0.35695000  0.61201000  0.28670000  1.0 0.0808280279
C  C1  1  0.87708000  0.68372000  0.05720000  1.0 -0.0225689281
C  C2  1  0.88674000  0.62266000  0.02810000  1.0 0.5322277322
C  C3  1  0.78940000  0.63580000  0.09900000  1.0 -0.1303228624
C  C4  1  0.77480000  0.68760000  0.12090000  1.0 -0.1473397911
C  C5  1  0.84560000  0.78800000  0.10260000  1.0 0.0513193636
C  C6  1  0.93400000  0.83720000  0.06300000  1.0 -0.1694285404
C  C7  1  0.94924000  0.78496000  0.03930000  1.0 -0.1101341378
C  C8  1  0.82610000  0.84330000  0.12190000  1.0 0.0606178588
C  C9  1  0.72970000  0.79570000  0.11930000  1.0 -0.1473397911
C  C10  1  0.71150000  0.84590000  0.13630000  1.0 -0.1600544528
C  C11  1  0.90410000  0.94430000  0.14020000  1.0 -0.1694285404
C  C12  1  0.88390000  0.99510000  0.15660000  1.0 -0.1303228624
C  C13  1  0.78876000  0.94544000  0.15540000  1.0 0.0606178588
C  C14  1  0.83937000  0.33623000  0.08690000  1.0 0.5805659071
C  C15  1  0.60490000  0.06950000  0.33470000  1.0 0.6094513908
C  C16  1  0.71674000  0.07866000  0.25690000  1.0 -0.2243118063
C  C17  1  0.68287000  0.11753000  0.26480000  1.0 -0.0097676883
C  C18  1  0.72389000  0.20151000  0.20930000  1.0 -0.1600544528
C  C19  1  0.79866000  0.24754000  0.14700000  1.0 -0.0097676883
C  C20  1  0.83372000  0.21048000  0.14040000  1.0 -0.2136493847
C  C21  1  0.79069000  0.12391000  0.19390000  1.0 0.1911550276
C  C22  1  0.76291000  0.99429000  0.17120000  1.0 0.043466373
C  C23  1  0.31030000  0.68310000  0.62610000  1.0 0.1194653222
C  C24  1  0.15460000  0.53900000  0.69890000  1.0 -0.1429227703
C  C25  1  0.29570000  0.57190000  0.72690000  1.0 -0.0429951195
C  C26  1  0.30870000  0.65630000  0.62000000  1.0 0.067477623
C  C27  1  0.18100000  0.51900000  0.70600000  1.0 -0.0893280581
C  C28  1  0.33720000  0.63680000  0.79400000  1.0 -0.2271258012
C  C29  1  0.68372000  0.87708000  0.44280000  1.0 -0.0225689281
C  C30  1  0.62266000  0.88674000  0.47190000  1.0 0.5322277322
C  C31  1  0.63580000  0.78940000  0.40100000  1.0 -0.1303228624
C  C32  1  0.68760000  0.77480000  0.37910000  1.0 -0.1473397911
C  C33  1  0.78800000  0.84560000  0.39740000  1.0 0.0513193636
C  C34  1  0.83720000  0.93400000  0.43700000  1.0 -0.1694285404
C  C35  1  0.78496000  0.94924000  0.46070000  1.0 -0.1101341378
C  C36  1  0.84330000  0.82610000  0.37810000  1.0 0.0606178588
C  C37  1  0.79570000  0.72970000  0.38070000  1.0 -0.1473397911
C  C38  1  0.84590000  0.71150000  0.36370000  1.0 -0.1600544528
C  C39  1  0.94430000  0.90410000  0.35980000  1.0 -0.1694285404
C  C40  1  0.99510000  0.88390000  0.34340000  1.0 -0.1303228624
C  C41  1  0.94544000  0.78876000  0.34460000  1.0 0.0606178588
C  C42  1  0.33623000  0.83937000  0.41310000  1.0 0.5805659071
C  C43  1  0.06950000  0.60490000  0.16530000  1.0 0.6094513908
C  C44  1  0.07866000  0.71674000  0.24310000  1.0 -0.2243118063
C  C45  1  0.11753000  0.68287000  0.23520000  1.0 -0.0097676883
C  C46  1  0.20151000  0.72389000  0.29070000  1.0 -0.1600544528
C  C47  1  0.24754000  0.79866000  0.35300000  1.0 -0.0097676883
C  C48  1  0.21048000  0.83372000  0.35960000  1.0 -0.2136493847
C  C49  1  0.12391000  0.79069000  0.30610000  1.0 0.1911550276
C  C50  1  0.99429000  0.76291000  0.32880000  1.0 0.0513193636
C  C51  1  0.68310000  0.31030000  0.87390000  1.0 0.1194653222
C  C52  1  0.53900000  0.15460000  0.80110000  1.0 -0.1429227703
C  C53  1  0.57190000  0.29570000  0.77310000  1.0 -0.0429951195
C  C54  1  0.65630000  0.30870000  0.88000000  1.0 0.067477623
C  C55  1  0.51900000  0.18100000  0.79400000  1.0 -0.0893280581
C  C56  1  0.63680000  0.33720000  0.70600000  1.0 -0.2271258012
C  C57  1  0.12292000  0.31628000  0.94280000  1.0 -0.0225689281
C  C58  1  0.11326000  0.37734000  0.97190000  1.0 0.5322277322
C  C59  1  0.21060000  0.36420000  0.90100000  1.0 -0.1303228624
C  C60  1  0.22520000  0.31240000  0.87910000  1.0 -0.1473397911
C  C61  1  0.15440000  0.21200000  0.89740000  1.0 0.0513193636
C  C62  1  0.06600000  0.16280000  0.93700000  1.0 -0.1694285404
C  C63  1  0.05076000  0.21504000  0.96070000  1.0 -0.1101341378
C  C64  1  0.17390000  0.15670000  0.87810000  1.0 0.0606178588
C  C65  1  0.27030000  0.20430000  0.88070000  1.0 -0.1473397911
C  C66  1  0.28850000  0.15410000  0.86370000  1.0 -0.1600544528
C  C67  1  0.09590000  0.05570000  0.85980000  1.0 -0.1694285404
C  C68  1  0.11610000  0.00490000  0.84340000  1.0 -0.1303228624
C  C69  1  0.21124000  0.05456000  0.84460000  1.0 0.0606178588
C  C70  1  0.16063000  0.66377000  0.91310000  1.0 0.5805659071
C  C71  1  0.39510000  0.93050000  0.66530000  1.0 0.6094513908
C  C72  1  0.28326000  0.92134000  0.74310000  1.0 -0.2243118063
C  C73  1  0.31713000  0.88247000  0.73520000  1.0 -0.0097676883
C  C74  1  0.27611000  0.79849000  0.79070000  1.0 -0.1600544528
C  C75  1  0.20134000  0.75246000  0.85300000  1.0 -0.0097676883
C  C76  1  0.16628000  0.78952000  0.85960000  1.0 -0.2136493847
C  C77  1  0.20931000  0.87609000  0.80610000  1.0 0.1911550276
C  C78  1  0.23709000  0.00571000  0.82880000  1.0 0.043466373
C  C79  1  0.68970000  0.31690000  0.37390000  1.0 0.1194653222
C  C80  1  0.84540000  0.46100000  0.30110000  1.0 -0.1429227703
C  C81  1  0.70430000  0.42810000  0.27310000  1.0 -0.0429951195
C  C82  1  0.69130000  0.34370000  0.38000000  1.0 0.067477623
C  C83  1  0.81900000  0.48100000  0.29400000  1.0 -0.0893280581
C  C84  1  0.66280000  0.36320000  0.20600000  1.0 -0.2271258012
C  C85  1  0.31628000  0.12292000  0.55720000  1.0 -0.0225689281
C  C86  1  0.37734000  0.11326000  0.52810000  1.0 0.5322277322
C  C87  1  0.36420000  0.21060000  0.59900000  1.0 -0.1303228624
C  C88  1  0.31240000  0.22520000  0.62090000  1.0 -0.1473397911
C  C89  1  0.21200000  0.15440000  0.60260000  1.0 0.0513193636
C  C90  1  0.16280000  0.06600000  0.56300000  1.0 -0.1694285404
C  C91  1  0.21504000  0.05076000  0.53930000  1.0 -0.1101341378
C  C92  1  0.15670000  0.17390000  0.62190000  1.0 0.0606178588
C  C93  1  0.20430000  0.27030000  0.61930000  1.0 -0.1473397911
C  C94  1  0.15410000  0.28850000  0.63630000  1.0 -0.1600544528
C  C95  1  0.05570000  0.09590000  0.64020000  1.0 -0.1694285404
C  C96  1  0.00490000  0.11610000  0.65660000  1.0 -0.1303228624
C  C97  1  0.05456000  0.21124000  0.65540000  1.0 0.0606178588
C  C98  1  0.66377000  0.16063000  0.58690000  1.0 0.5805659071
C  C99  1  0.93050000  0.39510000  0.83470000  1.0 0.6094513908
C  C100  1  0.92134000  0.28326000  0.75690000  1.0 -0.2271258012
C  C101  1  0.88247000  0.31713000  0.76480000  1.0 -0.0097676883
C  C102  1  0.79849000  0.27611000  0.70930000  1.0 -0.1600544528
C  C103  1  0.75246000  0.20134000  0.64700000  1.0 -0.0097676883
C  C104  1  0.78952000  0.16628000  0.64040000  1.0 -0.2136493847
C  C105  1  0.87609000  0.20931000  0.69390000  1.0 0.1911550276
C  C106  1  0.00571000  0.23709000  0.67120000  1.0 0.043466373
C  C107  1  0.31690000  0.68970000  0.12610000  1.0 0.1194653222
C  C108  1  0.46100000  0.84540000  0.19890000  1.0 -0.1429227703
C  C109  1  0.42810000  0.70430000  0.22690000  1.0 -0.0429951195
C  C110  1  0.34370000  0.69130000  0.12000000  1.0 0.067477623
C  C111  1  0.48100000  0.81900000  0.20600000  1.0 -0.0893280581
C  C112  1  0.36320000  0.66280000  0.29400000  1.0 -0.2271258012
N  N1  1  0.82707000  0.08753000  0.18250000  1.0 -0.2674788535
N  N2  1  0.25540000  0.60160000  0.68130000  1.0 0.0998146851
N  N3  1  0.28370000  0.61230000  0.70500000  1.0 0.148665335
N  N4  1  0.08753000  0.82707000  0.31750000  1.0 -0.2674788535
N  N5  1  0.60160000  0.25540000  0.81870000  1.0 0.0998146851
N  N6  1  0.61230000  0.28370000  0.79500000  1.0 0.148665335
N  N7  1  0.17293000  0.91247000  0.81750000  1.0 -0.2674788535
N  N8  1  0.74460000  0.39840000  0.31870000  1.0 0.0998146851
N  N9  1  0.71630000  0.38770000  0.29500000  1.0 0.148665335
N  N10  1  0.91247000  0.17293000  0.68250000  1.0 -0.2674788535
N  N11  1  0.39840000  0.74460000  0.18130000  1.0 0.0998146851
N  N12  1  0.38770000  0.71630000  0.20500000  1.0 0.148665335
O  O1  1  0.82091000  0.53189000  0.04880000  1.0 -0.6064993069
O  O2  1  0.96097000  0.66583000  0.97920000  1.0 -0.6351790354
O  O3  1  0.56614000  0.98886000  0.37680000  1.0 -0.6852875278
O  O4  1  0.58350000  0.11210000  0.34750000  1.0 -0.6598060951
O  O5  1  0.79147000  0.35293000  0.07380000  1.0 -0.5969733671
O  O6  1  0.92313000  0.39327000  0.04830000  1.0 -0.7346987352
O  O7  1  0.58223000  0.92657000  0.69480000  1.0 -0.7621560619
O  O8  1  0.39590000  0.73710000  0.60830000  1.0 -0.3654942289
O  O9  1  0.53189000  0.82091000  0.45120000  1.0 -0.6064993069
O  O10  1  0.66583000  0.96097000  0.52080000  1.0 -0.6351790354
O  O11  1  0.98886000  0.56614000  0.12320000  1.0 -0.6840273664
O  O12  1  0.11210000  0.58350000  0.15250000  1.0 -0.6598060951
O  O13  1  0.35293000  0.79147000  0.42620000  1.0 -0.5969733671
O  O14  1  0.39327000  0.92313000  0.45170000  1.0 -0.7346987352
O  O15  1  0.92657000  0.58223000  0.80520000  1.0 -0.7621560619
O  O16  1  0.73710000  0.39590000  0.89170000  1.0 -0.3654942289
O  O17  1  0.17909000  0.46811000  0.95120000  1.0 -0.6064993069
O  O18  1  0.03903000  0.33417000  0.02080000  1.0 -0.6346486137
O  O19  1  0.43386000  0.01114000  0.62320000  1.0 -0.6852875278
O  O20  1  0.41650000  0.88790000  0.65250000  1.0 -0.6598060951
O  O21  1  0.20853000  0.64707000  0.92620000  1.0 -0.5969733671
O  O22  1  0.07687000  0.60673000  0.95170000  1.0 -0.7346987352
O  O23  1  0.41777000  0.07343000  0.30520000  1.0 -0.7621560619
O  O24  1  0.60410000  0.26290000  0.39170000  1.0 -0.3654942289
O  O25  1  0.46811000  0.17909000  0.54880000  1.0 -0.6064993069
O  O26  1  0.33417000  0.03903000  0.47920000  1.0 -0.6351790354
O  O27  1  0.01114000  0.43386000  0.87680000  1.0 -0.6840273664
O  O28  1  0.88790000  0.41650000  0.84750000  1.0 -0.6598060951
O  O29  1  0.64707000  0.20853000  0.57380000  1.0 -0.5969733671
O  O30  1  0.60673000  0.07687000  0.54830000  1.0 -0.7346987352
O  O31  1  0.07343000  0.41777000  0.19480000  1.0 -0.7621560619
O  O32  1  0.26290000  0.60410000  0.10830000  1.0 -0.3654942289
