# DDEC6 charges by PACMAN v1.1 (https://github.com/mtap-research/PACMAN-charge/)
data_XAHPAZ_ASR_pacman
_symmetry_space_group_name_H-M   'P 1'
_cell_length_a   26.13590000
_cell_length_b   26.13590000
_cell_length_c   26.13590000
_cell_angle_alpha   145.01400000
_cell_angle_beta   145.01400000
_cell_angle_gamma   50.31410000
_symmetry_Int_Tables_number   1
_chemical_formula_structural   CuH4C16O5
_chemical_formula_sum   'Cu8 H32 C128 O40'
_cell_volume   5840.33778180
_cell_formula_units_Z   8
loop_
 _symmetry_equiv_pos_site_id
 _symmetry_equiv_pos_as_xyz
  1  'x, y, z'
loop_
 _atom_site_type_symbol
 _atom_site_label
 _atom_site_symmetry_multiplicity
 _atom_site_fract_x
 _atom_site_fract_y
 _atom_site_fract_z
 _atom_site_occupancy
 _atom_site_charge
Cu  Cu1  1  0.69670000  0.70354000  0.11850000  1.0 0.8525782369
Cu  Cu2  1  0.58504000  0.57820000  0.88150000  1.0 0.8525782369
Cu  Cu3  1  0.45354000  0.83504000  0.50684000  1.0 0.8525782369
Cu  Cu4  1  0.32820000  0.94670000  0.49316000  1.0 0.8525782369
Cu  Cu5  1  0.16496000  0.54646000  0.49316000  1.0 0.8525782369
Cu  Cu6  1  0.05330000  0.67180000  0.50684000  1.0 0.8525782369
Cu  Cu7  1  0.42180000  0.41496000  0.11850000  1.0 0.8525782369
Cu  Cu8  1  0.29646000  0.30330000  0.88150000  1.0 0.8525782369
H  H1  1  0.59730000  0.39310000  0.86900000  1.0 0.120053123
H  H2  1  0.52410000  0.72830000  0.13100000  1.0 0.120053123
H  H3  1  0.14310000  0.77410000  0.29580000  1.0 0.120053123
H  H4  1  0.47830000  0.84730000  0.70420000  1.0 0.120053123
H  H5  1  0.22590000  0.85690000  0.70420000  1.0 0.120053123
H  H6  1  0.15270000  0.52170000  0.29580000  1.0 0.120053123
H  H7  1  0.27170000  0.47590000  0.86900000  1.0 0.120053123
H  H8  1  0.60690000  0.40270000  0.13100000  1.0 0.120053123
H  H9  1  0.99250000  0.35820000  0.28830000  1.0 0.151987008
H  H10  1  0.06990000  0.70420000  0.71170000  1.0 0.151987008
H  H11  1  0.10820000  0.31990000  0.86570000  1.0 0.151987008
H  H12  1  0.45420000  0.24250000  0.13430000  1.0 0.151987008
H  H13  1  0.68010000  0.89180000  0.13430000  1.0 0.151987008
H  H14  1  0.75750000  0.54580000  0.86570000  1.0 0.151987008
H  H15  1  0.29580000  0.93010000  0.28830000  1.0 0.151987008
H  H16  1  0.64180000  0.00750000  0.71170000  1.0 0.151987008
H  H17  1  0.84260000  0.52730000  0.18990000  1.0 0.1391120992
H  H18  1  0.33740000  0.65270000  0.81010000  1.0 0.1391120992
H  H19  1  0.27730000  0.58740000  0.18470000  1.0 0.1391120992
H  H20  1  0.40270000  0.09260000  0.81530000  1.0 0.1391120992
H  H21  1  0.41260000  0.72270000  0.81530000  1.0 0.1391120992
H  H22  1  0.90740000  0.59730000  0.18470000  1.0 0.1391120992
H  H23  1  0.34730000  0.66260000  0.18990000  1.0 0.1391120992
H  H24  1  0.47270000  0.15740000  0.81010000  1.0 0.1391120992
H  H25  1  0.63090000  0.29930000  0.88300000  1.0 0.120053123
H  H26  1  0.41630000  0.74790000  0.11700000  1.0 0.120053123
H  H27  1  0.04930000  0.66630000  0.16840000  1.0 0.120053123
H  H28  1  0.49790000  0.88090000  0.83160000  1.0 0.120053123
H  H29  1  0.33370000  0.95070000  0.83160000  1.0 0.120053123
H  H30  1  0.11910000  0.50210000  0.16840000  1.0 0.120053123
H  H31  1  0.25210000  0.58370000  0.88300000  1.0 0.120053123
H  H32  1  0.70070000  0.36910000  0.11700000  1.0 0.120053123
C  C1  1  0.65370000  0.40020000  0.93610000  1.0 -0.1075553514
C  C2  1  0.46410000  0.71760000  0.06390000  1.0 -0.1075553514
C  C3  1  0.15020000  0.71410000  0.24650000  1.0 -0.1075553514
C  C4  1  0.46760000  0.90370000  0.75350000  1.0 -0.1075553514
C  C5  1  0.28590000  0.84980000  0.75350000  1.0 -0.1075553514
C  C6  1  0.09630000  0.53240000  0.24650000  1.0 -0.1075553514
C  C7  1  0.28240000  0.53590000  0.93610000  1.0 -0.1075553514
C  C8  1  0.59980000  0.34630000  0.06390000  1.0 -0.1075553514
C  C9  1  0.71726000  0.47026000  0.02940000  1.0 -0.0189049421
C  C10  1  0.44086000  0.68786000  0.97060000  1.0 -0.0189049421
C  C11  1  0.22026000  0.69086000  0.25300000  1.0 -0.0189049421
C  C12  1  0.43786000  0.96726000  0.74700000  1.0 -0.0189049421
C  C13  1  0.30914000  0.77974000  0.74700000  1.0 -0.0189049421
C  C14  1  0.03274000  0.56214000  0.25300000  1.0 -0.0189049421
C  C15  1  0.31214000  0.55914000  0.02940000  1.0 -0.0189049421
C  C16  1  0.52974000  0.28274000  0.97060000  1.0 -0.0189049421
C  C17  1  0.91243000  0.42253000  0.23070000  1.0 -0.0266690877
C  C18  1  0.19183000  0.68173000  0.76930000  1.0 -0.0266690877
C  C19  1  0.17253000  0.44183000  0.01010000  1.0 -0.0266690877
C  C20  1  0.43173000  0.16243000  0.98990000  1.0 -0.0266690877
C  C21  1  0.55817000  0.82747000  0.98990000  1.0 -0.0266690877
C  C22  1  0.83757000  0.56827000  0.01010000  1.0 -0.0266690877
C  C23  1  0.31827000  0.80817000  0.23070000  1.0 -0.0266690877
C  C24  1  0.57747000  0.08757000  0.76930000  1.0 -0.0266690877
C  C25  1  0.78243000  0.28793000  0.04730000  1.0 -0.0591557741
C  C26  1  0.24063000  0.73513000  0.95270000  1.0 -0.0591557741
C  C27  1  0.03793000  0.49063000  0.00550000  1.0 -0.0591557741
C  C28  1  0.48513000  0.03243000  0.99450000  1.0 -0.0591557741
C  C29  1  0.50937000  0.96207000  0.99450000  1.0 -0.0591557741
C  C30  1  0.96757000  0.51487000  0.00550000  1.0 -0.0591557741
C  C31  1  0.26487000  0.75937000  0.04730000  1.0 -0.0591557741
C  C32  1  0.71207000  0.21757000  0.95270000  1.0 -0.0591557741
C  C33  1  0.82554000  0.41974000  0.13620000  1.0 0.0499031967
C  C34  1  0.28354000  0.68934000  0.86380000  1.0 0.0499031967
C  C35  1  0.16974000  0.53354000  0.09420000  1.0 0.0499031967
C  C36  1  0.43934000  0.07554000  0.90580000  1.0 0.0499031967
C  C37  1  0.46646000  0.83026000  0.90580000  1.0 0.0499031967
C  C38  1  0.92446000  0.56066000  0.09420000  1.0 0.0499031967
C  C39  1  0.31066000  0.71646000  0.13620000  1.0 0.0499031967
C  C40  1  0.58026000  0.17446000  0.86380000  1.0 0.0499031967
C  C41  1  0.76017000  0.34877000  0.04120000  1.0 0.0438604441
C  C42  1  0.30757000  0.71897000  0.95880000  1.0 0.0438604441
C  C43  1  0.09877000  0.55757000  0.08860000  1.0 0.0438604441
C  C44  1  0.46897000  0.01017000  0.91140000  1.0 0.0438604441
C  C45  1  0.44243000  0.90123000  0.91140000  1.0 0.0438604441
C  C46  1  0.98983000  0.53103000  0.08860000  1.0 0.0438604441
C  C47  1  0.28103000  0.69243000  0.04120000  1.0 0.0438604441
C  C48  1  0.65123000  0.23983000  0.95880000  1.0 0.0438604441
C  C49  1  0.86937000  0.29227000  0.13990000  1.0 0.1762329903
C  C50  1  0.15237000  0.72947000  0.86010000  1.0 0.1745168708
C  C51  1  0.04227000  0.40237000  0.92290000  1.0 0.1762329903
C  C52  1  0.47947000  0.11937000  0.07710000  1.0 0.1745168708
C  C53  1  0.59763000  0.95773000  0.07710000  1.0 0.1762329903
C  C54  1  0.88063000  0.52053000  0.92290000  1.0 0.1762329903
C  C55  1  0.27053000  0.84763000  0.13990000  1.0 0.1762329903
C  C56  1  0.70773000  0.13063000  0.86010000  1.0 0.1762329903
C  C57  1  0.93355000  0.35795000  0.22860000  1.0 -0.2328935012
C  C58  1  0.12935000  0.70495000  0.77140000  1.0 -0.2328935012
C  C59  1  0.10795000  0.37935000  0.92440000  1.0 -0.2328935012
C  C60  1  0.45495000  0.18355000  0.07560000  1.0 -0.2328935012
C  C61  1  0.62065000  0.89205000  0.07560000  1.0 -0.2328935012
C  C62  1  0.81645000  0.54505000  0.92440000  1.0 -0.2328935012
C  C63  1  0.29505000  0.87065000  0.22860000  1.0 -0.2328935012
C  C64  1  0.64205000  0.06645000  0.77140000  1.0 -0.2328935012
C  C65  1  0.98678000  0.49288000  0.33430000  1.0 0.582913018
C  C66  1  0.15858000  0.65248000  0.66570000  1.0 0.582913018
C  C67  1  0.24288000  0.40858000  0.00610000  1.0 0.582913018
C  C68  1  0.40248000  0.23678000  0.99390000  1.0 0.582913018
C  C69  1  0.59142000  0.75712000  0.99390000  1.0 0.582913018
C  C70  1  0.76322000  0.59752000  0.00610000  1.0 0.582913018
C  C71  1  0.34752000  0.84142000  0.33430000  1.0 0.582913018
C  C72  1  0.50712000  0.01322000  0.66570000  1.0 0.582913018
C  C73  1  0.80130000  0.48040000  0.12810000  1.0 -0.1508071402
C  C74  1  0.35230000  0.67320000  0.87190000  1.0 -0.1508071402
C  C75  1  0.23040000  0.60230000  0.17910000  1.0 -0.1508071402
C  C76  1  0.42320000  0.05130000  0.82090000  1.0 -0.1508071402
C  C77  1  0.39770000  0.76960000  0.82090000  1.0 -0.1508071402
C  C78  1  0.94870000  0.57680000  0.17910000  1.0 -0.1508071402
C  C79  1  0.32680000  0.64770000  0.12810000  1.0 -0.1508071402
C  C80  1  0.51960000  0.19870000  0.87190000  1.0 -0.1508071402
C  C81  1  0.67464000  0.34344000  0.94400000  1.0 -0.1508071402
C  C82  1  0.39944000  0.73064000  0.05600000  1.0 -0.1508071402
C  C83  1  0.09344000  0.64944000  0.16880000  1.0 -0.1508071402
C  C84  1  0.48064000  0.92464000  0.83120000  1.0 -0.1508071402
C  C85  1  0.35056000  0.90656000  0.83120000  1.0 -0.1508071402
C  C86  1  0.07536000  0.51936000  0.16880000  1.0 -0.1508071402
C  C87  1  0.26936000  0.60056000  0.94400000  1.0 -0.1508071402
C  C88  1  0.65656000  0.32536000  0.05600000  1.0 -0.1508071402
C  C89  1  0.69136000  0.53366000  0.01970000  1.0 0.5722523473
C  C90  1  0.51396000  0.67166000  0.98030000  1.0 0.5722523473
C  C91  1  0.28366000  0.76396000  0.34230000  1.0 0.5722523473
C  C92  1  0.42166000  0.94136000  0.65770000  1.0 0.5722523473
C  C93  1  0.23604000  0.71634000  0.65770000  1.0 0.5722523473
C  C94  1  0.05864000  0.57834000  0.34230000  1.0 0.5722523473
C  C95  1  0.32834000  0.48604000  0.01970000  1.0 0.5722523473
C  C96  1  0.46634000  0.30864000  0.98030000  1.0 0.5722523473
C  C97  1  0.97770000  0.19700000  0.18750000  1.0 0.0885409296
C  C98  1  0.00950000  0.79020000  0.81250000  1.0 0.0885409296
C  C99  1  0.94700000  0.25950000  0.71930000  1.0 0.0885409296
C  C100  1  0.54020000  0.22770000  0.28070000  1.0 0.0885409296
C  C101  1  0.74050000  0.05300000  0.28070000  1.0 0.0885409296
C  C102  1  0.77230000  0.45980000  0.71930000  1.0 0.0885409296
C  C103  1  0.20980000  0.99050000  0.18750000  1.0 0.0885409296
C  C104  1  0.80300000  0.02230000  0.81250000  1.0 0.0885409296
C  C105  1  0.97700000  0.11150000  0.14630000  1.0 -0.1075553514
C  C106  1  0.96520000  0.83070000  0.85370000  1.0 -0.1075553514
C  C107  1  0.86150000  0.21520000  0.63450000  1.0 -0.1075553514
C  C108  1  0.58070000  0.22700000  0.36550000  1.0 -0.1075553514
C  C109  1  0.78480000  0.13850000  0.36550000  1.0 -0.1163081683
C  C110  1  0.77300000  0.41930000  0.63450000  1.0 -0.1075553514
C  C111  1  0.16930000  0.03480000  0.14630000  1.0 -0.1075553514
C  C112  1  0.88850000  0.02300000  0.85370000  1.0 -0.1075553514
C  C113  1  0.97900000  0.23650000  0.24730000  1.0 0.0771867593
C  C114  1  0.98920000  0.73170000  0.75270000  1.0 0.0771867593
C  C115  1  0.98650000  0.23920000  0.75750000  1.0 0.0771867593
C  C116  1  0.48170000  0.22900000  0.24250000  1.0 0.0771867593
C  C117  1  0.76080000  0.01350000  0.24250000  1.0 0.0771867593
C  C118  1  0.77100000  0.51830000  0.75750000  1.0 0.0771867593
C  C119  1  0.26830000  0.01080000  0.24730000  1.0 0.0733626254
C  C120  1  0.76350000  0.02100000  0.75270000  1.0 0.0771867593
C  C121  1  0.96640000  0.15380000  0.20260000  1.0 0.0499031967
C  C122  1  0.95120000  0.76380000  0.79740000  1.0 0.0499031967
C  C123  1  0.90380000  0.20120000  0.68740000  1.0 0.0499031967
C  C124  1  0.51380000  0.21640000  0.31260000  1.0 0.0499031967
C  C125  1  0.79880000  0.09620000  0.31260000  1.0 0.0499031967
C  C126  1  0.78360000  0.48620000  0.68740000  1.0 0.0499031967
C  C127  1  0.23620000  0.04880000  0.20260000  1.0 0.0499031967
C  C128  1  0.84620000  0.03360000  0.79740000  1.0 0.0499031967
O  O1  1  0.73717000  0.60910000  0.11691000  1.0 -0.5206404346
O  O2  1  0.49219000  0.62026000  0.88309000  1.0 -0.5206404346
O  O3  1  0.35910000  0.74219000  0.37193000  1.0 -0.5206404346
O  O4  1  0.37026000  0.98717000  0.62807000  1.0 -0.5206404346
O  O5  1  0.25781000  0.64090000  0.62807000  1.0 -0.5206404346
O  O6  1  0.01283000  0.62974000  0.37193000  1.0 -0.5206404346
O  O7  1  0.37974000  0.50781000  0.11691000  1.0 -0.5206404346
O  O8  1  0.39090000  0.26283000  0.88309000  1.0 -0.5206404346
O  O9  1  0.62613000  0.50962000  0.91835000  1.0 -0.5206404346
O  O10  1  0.59127000  0.70778000  0.08165000  1.0 -0.5206404346
O  O11  1  0.25962000  0.84127000  0.38349000  1.0 -0.5206404346
O  O12  1  0.45778000  0.87613000  0.61651000  1.0 -0.5206404346
O  O13  1  0.15873000  0.74038000  0.61651000  1.0 -0.5206404346
O  O14  1  0.12387000  0.54222000  0.38349000  1.0 -0.5206404346
O  O15  1  0.29222000  0.40873000  0.91835000  1.0 -0.5206404346
O  O16  1  0.49038000  0.37387000  0.08165000  1.0 -0.5250415065
O  O17  1  0.96977000  0.57277000  0.38698000  1.0 -0.5122424595
O  O18  1  0.18579000  0.58279000  0.61302000  1.0 -0.5122424595
O  O19  1  0.32277000  0.43579000  0.10300000  1.0 -0.5122424595
O  O20  1  0.33279000  0.21977000  0.89700000  1.0 -0.5122424595
O  O21  1  0.56421000  0.67723000  0.89700000  1.0 -0.5122424595
O  O22  1  0.78023000  0.66721000  0.10300000  1.0 -0.5122424595
O  O23  1  0.41721000  0.81421000  0.38698000  1.0 -0.5122424595
O  O24  1  0.42723000  0.03023000  0.61302000  1.0 -0.5122424595
O  O25  1  0.06042000  0.46530000  0.36030000  1.0 -0.5122424595
O  O26  1  0.10500000  0.70012000  0.63970000  1.0 -0.5122424595
O  O27  1  0.21530000  0.35500000  0.90488000  1.0 -0.5122424595
O  O28  1  0.45012000  0.31042000  0.09512000  1.0 -0.5122424595
O  O29  1  0.64500000  0.78470000  0.09512000  1.0 -0.5122424595
O  O30  1  0.68958000  0.54988000  0.90488000  1.0 -0.5122424595
O  O31  1  0.29988000  0.89500000  0.36030000  1.0 -0.5122424595
O  O32  1  0.53470000  0.93958000  0.63970000  1.0 -0.5122424595
O  O33  1  0.88647000  0.22917000  0.13810000  1.0 -0.1019111125
O  O34  1  0.09107000  0.74837000  0.86190000  1.0 -0.1019111125
O  O35  1  0.97917000  0.34107000  0.84270000  1.0 -0.1019111125
O  O36  1  0.49837000  0.13647000  0.15730000  1.0 -0.1019111125
O  O37  1  0.65893000  0.02083000  0.15730000  1.0 -0.1019111125
O  O38  1  0.86353000  0.50163000  0.84270000  1.0 -0.1019111125
O  O39  1  0.25163000  0.90893000  0.13810000  1.0 -0.1019111125
O  O40  1  0.77083000  0.11353000  0.86190000  1.0 -0.1019111125
