# DDEC6 charges by PACMAN v1.1 (https://github.com/mtap-research/PACMAN-charge/)
data_XAHPOP_FSR_pacman
_symmetry_space_group_name_H-M   'P 1'
_cell_length_a   20.39910000
_cell_length_b   20.39910000
_cell_length_c   14.02300000
_cell_angle_alpha   84.08480000
_cell_angle_beta   95.91520000
_cell_angle_gamma   138.98800000
_symmetry_Int_Tables_number   1
_chemical_formula_structural   NdH28C28N3O8
_chemical_formula_sum   'Nd4 H112 C112 N12 O32'
_cell_volume   3805.97211553
_cell_formula_units_Z   4
loop_
 _symmetry_equiv_pos_site_id
 _symmetry_equiv_pos_as_xyz
  1  'x, y, z'
loop_
 _atom_site_type_symbol
 _atom_site_label
 _atom_site_symmetry_multiplicity
 _atom_site_fract_x
 _atom_site_fract_y
 _atom_site_fract_z
 _atom_site_occupancy
 _atom_site_charge
Nd  Nd1  1  0.49339000  0.09469000  0.46895000  1.0 1.9842216993
Nd  Nd2  1  0.09469000  0.49339000  0.03105000  1.0 1.9842216993
Nd  Nd3  1  0.50661000  0.90531000  0.53105000  1.0 1.9842216993
Nd  Nd4  1  0.90531000  0.50661000  0.96895000  1.0 1.9842216993
H  H1  1  0.18072000  0.98900000  0.51759000  1.0 0.1100425055
H  H2  1  0.09392000  0.01534000  0.55373000  1.0 0.1007739659
H  H3  1  0.34545000  0.28457000  0.64908000  1.0 0.1100425055
H  H4  1  0.43281000  0.25807000  0.61611000  1.0 0.1180213118
H  H5  1  0.44553000  0.09977000  0.24445000  1.0 0.414031359
H  H6  1  0.40660000  0.10238000  0.32290000  1.0 0.3822321543
H  H7  1  0.01825000  0.02873000  0.64165000  1.0 0.1100425055
H  H8  1  0.93777000  0.06389000  0.66997000  1.0 0.1180213118
H  H9  1  0.27168000  0.32220000  0.60238000  1.0 0.1100425055
H  H10  1  0.18956000  0.35512000  0.63121000  1.0 0.1180213118
H  H11  1  0.75894000  0.11798000  0.59431000  1.0 0.1404204541
H  H12  1  0.77409000  0.30019000  0.71226000  1.0 0.1286150539
H  H13  1  0.97760000  0.31114000  0.78980000  1.0 0.1180213118
H  H14  1  0.04561000  0.30571000  0.66983000  1.0 0.0878735417
H  H15  1  0.71798000  0.29802000  0.41359000  1.0 0.0594626955
H  H16  1  0.75981000  0.48355000  0.22805000  1.0 0.0594626955
H  H17  1  0.68439000  0.43539000  0.30864000  1.0 0.071109849
H  H18  1  0.65457000  0.37055000  0.22487000  1.0 0.0523663094
H  H19  1  0.88132000  0.51242000  0.26442000  1.0 0.071109849
H  H20  1  0.85675000  0.41873000  0.28497000  1.0 0.0878735417
H  H21  1  0.88945000  0.48415000  0.36969000  1.0 0.071109849
H  H22  1  0.73595000  0.36961000  0.42320000  1.0 0.071109849
H  H23  1  0.69069000  0.40001000  0.15197000  1.0 0.0878735417
H  H24  1  0.60181000  0.34695000  0.21669000  1.0 0.0810543015
H  H25  1  0.61901000  0.28863000  0.18802000  1.0 0.0810543015
H  H26  1  0.83154000  0.50592000  0.21351000  1.0 0.071109849
H  H27  1  0.85961000  0.46957000  0.29295000  1.0 0.0301699569
H  H28  1  0.84180000  0.52742000  0.32139000  1.0 0.0878735417
H  H29  1  0.98900000  0.18072000  0.98241000  1.0 0.1100425055
H  H30  1  0.01534000  0.09392000  0.94627000  1.0 0.1007739659
H  H31  1  0.28457000  0.34545000  0.85092000  1.0 0.1100425055
H  H32  1  0.25807000  0.43281000  0.88389000  1.0 0.1180213118
H  H33  1  0.09977000  0.44553000  0.25555000  1.0 0.414031359
H  H34  1  0.10238000  0.40660000  0.17710000  1.0 0.3822321543
H  H35  1  0.02873000  0.01825000  0.85835000  1.0 0.1100425055
H  H36  1  0.06389000  0.93777000  0.83003000  1.0 0.1180213118
H  H37  1  0.32220000  0.27168000  0.89762000  1.0 0.1100425055
H  H38  1  0.35512000  0.18956000  0.86879000  1.0 0.1180213118
H  H39  1  0.11798000  0.75894000  0.90569000  1.0 0.1404204541
H  H40  1  0.30019000  0.77409000  0.78774000  1.0 0.1286150539
H  H41  1  0.31114000  0.97760000  0.71020000  1.0 0.1180213118
H  H42  1  0.30571000  0.04561000  0.83017000  1.0 0.0878735417
H  H43  1  0.29802000  0.71798000  0.08641000  1.0 0.0594626955
H  H44  1  0.48355000  0.75981000  0.27195000  1.0 0.0594626955
H  H45  1  0.43539000  0.68439000  0.19136000  1.0 0.0594626955
H  H46  1  0.37055000  0.65457000  0.27513000  1.0 0.0523663094
H  H47  1  0.51242000  0.88132000  0.23558000  1.0 0.071109849
H  H48  1  0.41873000  0.85675000  0.21503000  1.0 0.0878735417
H  H49  1  0.48415000  0.88945000  0.13031000  1.0 0.071109849
H  H50  1  0.36961000  0.73595000  0.07680000  1.0 0.071109849
H  H51  1  0.40001000  0.69069000  0.34803000  1.0 0.0878735417
H  H52  1  0.34695000  0.60181000  0.28331000  1.0 0.0810543015
H  H53  1  0.28863000  0.61901000  0.31198000  1.0 0.0810543015
H  H54  1  0.50592000  0.83154000  0.28649000  1.0 0.071109849
H  H55  1  0.46957000  0.85961000  0.20705000  1.0 0.0301699569
H  H56  1  0.52742000  0.84180000  0.17861000  1.0 0.0878735417
H  H57  1  0.81928000  0.01100000  0.48241000  1.0 0.1100425055
H  H58  1  0.90608000  0.98466000  0.44627000  1.0 0.1007739659
H  H59  1  0.65455000  0.71543000  0.35092000  1.0 0.1100425055
H  H60  1  0.56719000  0.74193000  0.38389000  1.0 0.1180213118
H  H61  1  0.55447000  0.90023000  0.75555000  1.0 0.414031359
H  H62  1  0.59340000  0.89762000  0.67710000  1.0 0.3822321543
H  H63  1  0.98175000  0.97127000  0.35835000  1.0 0.1100425055
H  H64  1  0.06223000  0.93611000  0.33003000  1.0 0.1180213118
H  H65  1  0.72832000  0.67780000  0.39762000  1.0 0.1100425055
H  H66  1  0.81044000  0.64488000  0.36879000  1.0 0.1180213118
H  H67  1  0.24106000  0.88202000  0.40569000  1.0 0.1404204541
H  H68  1  0.22591000  0.69981000  0.28774000  1.0 0.1286150539
H  H69  1  0.02240000  0.68886000  0.21020000  1.0 0.1180213118
H  H70  1  0.95439000  0.69429000  0.33017000  1.0 0.0878735417
H  H71  1  0.28202000  0.70198000  0.58641000  1.0 0.0594626955
H  H72  1  0.24019000  0.51645000  0.77195000  1.0 0.0594626955
H  H73  1  0.31561000  0.56461000  0.69136000  1.0 0.071109849
H  H74  1  0.34543000  0.62945000  0.77513000  1.0 0.0523663094
H  H75  1  0.11868000  0.48758000  0.73558000  1.0 0.071109849
H  H76  1  0.14325000  0.58127000  0.71503000  1.0 0.0878735417
H  H77  1  0.11055000  0.51585000  0.63031000  1.0 0.071109849
H  H78  1  0.26405000  0.63039000  0.57680000  1.0 0.071109849
H  H79  1  0.30931000  0.59999000  0.84803000  1.0 0.0878735417
H  H80  1  0.39819000  0.65305000  0.78331000  1.0 0.0810543015
H  H81  1  0.38099000  0.71137000  0.81198000  1.0 0.0810543015
H  H82  1  0.16846000  0.49408000  0.78649000  1.0 0.071109849
H  H83  1  0.14039000  0.53043000  0.70705000  1.0 0.0301699569
H  H84  1  0.15820000  0.47258000  0.67861000  1.0 0.0878735417
H  H85  1  0.01100000  0.81928000  0.01759000  1.0 0.1100425055
H  H86  1  0.98466000  0.90608000  0.05373000  1.0 0.1007739659
H  H87  1  0.71543000  0.65455000  0.14908000  1.0 0.1100425055
H  H88  1  0.74193000  0.56719000  0.11611000  1.0 0.1180213118
H  H89  1  0.90023000  0.55447000  0.74445000  1.0 0.414031359
H  H90  1  0.89762000  0.59340000  0.82290000  1.0 0.3822321543
H  H91  1  0.97127000  0.98175000  0.14165000  1.0 0.1100425055
H  H92  1  0.93611000  0.06223000  0.16997000  1.0 0.1180213118
H  H93  1  0.67780000  0.72832000  0.10238000  1.0 0.1100425055
H  H94  1  0.64488000  0.81044000  0.13121000  1.0 0.1180213118
H  H95  1  0.88202000  0.24106000  0.09431000  1.0 0.1404204541
H  H96  1  0.69981000  0.22591000  0.21226000  1.0 0.1286150539
H  H97  1  0.68886000  0.02240000  0.28980000  1.0 0.1180213118
H  H98  1  0.69429000  0.95439000  0.16983000  1.0 0.0878735417
H  H99  1  0.70198000  0.28202000  0.91359000  1.0 0.0594626955
H  H100  1  0.51645000  0.24019000  0.72805000  1.0 0.0594626955
H  H101  1  0.56461000  0.31561000  0.80864000  1.0 0.071109849
H  H102  1  0.62945000  0.34543000  0.72487000  1.0 0.0523663094
H  H103  1  0.48758000  0.11868000  0.76442000  1.0 0.071109849
H  H104  1  0.58127000  0.14325000  0.78497000  1.0 0.0878735417
H  H105  1  0.51585000  0.11055000  0.86969000  1.0 0.071109849
H  H106  1  0.63039000  0.26405000  0.92320000  1.0 0.071109849
H  H107  1  0.59999000  0.30931000  0.65197000  1.0 0.0878735417
H  H108  1  0.65305000  0.39819000  0.71669000  1.0 0.0810543015
H  H109  1  0.71137000  0.38099000  0.68802000  1.0 0.0810543015
H  H110  1  0.49408000  0.16846000  0.71351000  1.0 0.071109849
H  H111  1  0.53043000  0.14039000  0.79295000  1.0 0.0301699569
H  H112  1  0.47258000  0.15820000  0.82139000  1.0 0.0878735417
C  C1  1  0.37701000  0.11219000  0.52980000  1.0 0.5289419615
C  C2  1  0.31736000  0.12364000  0.55900000  1.0 -0.0216226779
C  C3  1  0.21460000  0.04900000  0.54290000  1.0 -0.1083276285
C  C4  1  0.16270000  0.06530000  0.56530000  1.0 -0.1711586156
C  C5  1  0.20981000  0.15259000  0.60380000  1.0 0.0594626955
C  C6  1  0.31180000  0.22520000  0.62240000  1.0 -0.1617824784
C  C7  1  0.36460000  0.20960000  0.60130000  1.0 -0.1288969791
C  C8  1  0.15498000  0.17322000  0.62100000  1.0 0.0594626955
C  C9  1  0.05320000  0.09460000  0.64010000  1.0 -0.1711586156
C  C10  1  0.00530000  0.11610000  0.65660000  1.0 -0.1288969791
C  C11  1  0.20440000  0.26960000  0.61670000  1.0 -0.1473865336
C  C12  1  0.15490000  0.28930000  0.63350000  1.0 -0.1617824784
C  C13  1  0.05460000  0.21240000  0.65380000  1.0 0.0594626955
C  C14  1  0.93038000  0.39522000  0.83470000  1.0 0.6053266847
C  C15  1  0.66411000  0.16129000  0.58550000  1.0 0.5812793547
C  C16  1  0.79088000  0.16872000  0.63590000  1.0 -0.1913639283
C  C17  1  0.75431000  0.20389000  0.64520000  1.0 0.0017332533
C  C18  1  0.79943000  0.27737000  0.70760000  1.0 -0.1711586156
C  C19  1  0.88292000  0.31808000  0.76380000  1.0 -0.0149847618
C  C20  1  0.92118000  0.28382000  0.75340000  1.0 -0.232045663
C  C21  1  0.87672000  0.21088000  0.69020000  1.0 0.1930464865
C  C22  1  0.00580000  0.23840000  0.66810000  1.0 0.041987253
C  C23  1  0.69080000  0.31540000  0.37990000  1.0 0.1007739659
C  C24  1  0.70840000  0.42360000  0.26600000  1.0 -0.0317828976
C  C25  1  0.85290000  0.45810000  0.30900000  1.0 -0.1753169386
C  C26  1  0.68730000  0.33990000  0.37400000  1.0 0.1007739659
C  C27  1  0.65140000  0.35260000  0.20400000  1.0 -0.2523409477
C  C28  1  0.82140000  0.48060000  0.27800000  1.0 -0.0906391194
C  C29  1  0.11219000  0.37701000  0.97020000  1.0 0.5289419615
C  C30  1  0.12364000  0.31736000  0.94100000  1.0 -0.0216226779
C  C31  1  0.04900000  0.21460000  0.95710000  1.0 -0.1083276285
C  C32  1  0.06530000  0.16270000  0.93470000  1.0 -0.1711586156
C  C33  1  0.15259000  0.20981000  0.89620000  1.0 0.0594626955
C  C34  1  0.22520000  0.31180000  0.87760000  1.0 -0.1617824784
C  C35  1  0.20960000  0.36460000  0.89870000  1.0 -0.1288969791
C  C36  1  0.17322000  0.15498000  0.87900000  1.0 0.0594626955
C  C37  1  0.09460000  0.05320000  0.85990000  1.0 -0.1711586156
C  C38  1  0.11610000  0.00530000  0.84340000  1.0 -0.1351208365
C  C39  1  0.26960000  0.20440000  0.88330000  1.0 -0.1473865336
C  C40  1  0.28930000  0.15490000  0.86650000  1.0 -0.1617824784
C  C41  1  0.21240000  0.05460000  0.84620000  1.0 0.0594626955
C  C42  1  0.39522000  0.93038000  0.66530000  1.0 0.6053266847
C  C43  1  0.16129000  0.66411000  0.91450000  1.0 0.5812793547
C  C44  1  0.16872000  0.79088000  0.86410000  1.0 -0.1913639283
C  C45  1  0.20389000  0.75431000  0.85480000  1.0 0.0017332533
C  C46  1  0.27737000  0.79943000  0.79240000  1.0 -0.1711586156
C  C47  1  0.31808000  0.88292000  0.73620000  1.0 -0.0149847618
C  C48  1  0.28382000  0.92118000  0.74660000  1.0 -0.232045663
C  C49  1  0.21088000  0.87672000  0.80980000  1.0 0.1930464865
C  C50  1  0.23840000  0.00580000  0.83190000  1.0 0.041987253
C  C51  1  0.31540000  0.69080000  0.12010000  1.0 0.1007739659
C  C52  1  0.42360000  0.70840000  0.23400000  1.0 -0.0317828976
C  C53  1  0.45810000  0.85290000  0.19100000  1.0 -0.1753169386
C  C54  1  0.33990000  0.68730000  0.12600000  1.0 0.1007739659
C  C55  1  0.35260000  0.65140000  0.29600000  1.0 -0.2523409477
C  C56  1  0.48060000  0.82140000  0.22200000  1.0 -0.0906391194
C  C57  1  0.62299000  0.88781000  0.47020000  1.0 0.5289419615
C  C58  1  0.68264000  0.87636000  0.44100000  1.0 -0.0216226779
C  C59  1  0.78540000  0.95100000  0.45710000  1.0 -0.1083276285
C  C60  1  0.83730000  0.93470000  0.43470000  1.0 -0.1711586156
C  C61  1  0.79019000  0.84741000  0.39620000  1.0 0.0594626955
C  C62  1  0.68820000  0.77480000  0.37760000  1.0 -0.1617824784
C  C63  1  0.63540000  0.79040000  0.39870000  1.0 -0.1288969791
C  C64  1  0.84502000  0.82678000  0.37900000  1.0 0.0594626955
C  C65  1  0.94680000  0.90540000  0.35990000  1.0 -0.1711586156
C  C66  1  0.99470000  0.88390000  0.34340000  1.0 -0.1351208365
C  C67  1  0.79560000  0.73040000  0.38330000  1.0 -0.1473865336
C  C68  1  0.84510000  0.71070000  0.36650000  1.0 -0.1617824784
C  C69  1  0.94540000  0.78760000  0.34620000  1.0 0.0594626955
C  C70  1  0.06962000  0.60478000  0.16530000  1.0 0.6053266847
C  C71  1  0.33589000  0.83871000  0.41450000  1.0 0.5812793547
C  C72  1  0.20912000  0.83128000  0.36410000  1.0 -0.1913639283
C  C73  1  0.24569000  0.79611000  0.35480000  1.0 0.0017332533
C  C74  1  0.20057000  0.72263000  0.29240000  1.0 -0.1711586156
C  C75  1  0.11708000  0.68192000  0.23620000  1.0 -0.0149847618
C  C76  1  0.07882000  0.71618000  0.24660000  1.0 -0.232045663
C  C77  1  0.12328000  0.78912000  0.30980000  1.0 0.1930464865
C  C78  1  0.99420000  0.76160000  0.33190000  1.0 0.041987253
C  C79  1  0.30920000  0.68460000  0.62010000  1.0 0.1007739659
C  C80  1  0.29160000  0.57640000  0.73400000  1.0 -0.0317828976
C  C81  1  0.14710000  0.54190000  0.69100000  1.0 -0.1753169386
C  C82  1  0.31270000  0.66010000  0.62600000  1.0 0.1007739659
C  C83  1  0.34860000  0.64740000  0.79600000  1.0 -0.2523409477
C  C84  1  0.17860000  0.51940000  0.72200000  1.0 -0.0906391194
C  C85  1  0.88781000  0.62299000  0.02980000  1.0 0.5289419615
C  C86  1  0.87636000  0.68264000  0.05900000  1.0 -0.0216226779
C  C87  1  0.95100000  0.78540000  0.04290000  1.0 -0.1083276285
C  C88  1  0.93470000  0.83730000  0.06530000  1.0 -0.1711586156
C  C89  1  0.84741000  0.79019000  0.10380000  1.0 0.0594626955
C  C90  1  0.77480000  0.68820000  0.12240000  1.0 -0.1617824784
C  C91  1  0.79040000  0.63540000  0.10130000  1.0 -0.1288969791
C  C92  1  0.82678000  0.84502000  0.12100000  1.0 0.0594626955
C  C93  1  0.90540000  0.94680000  0.14010000  1.0 -0.1711586156
C  C94  1  0.88390000  0.99470000  0.15660000  1.0 -0.1351208365
C  C95  1  0.73040000  0.79560000  0.11670000  1.0 -0.1473865336
C  C96  1  0.71070000  0.84510000  0.13350000  1.0 -0.1617824784
C  C97  1  0.78760000  0.94540000  0.15380000  1.0 0.0594626955
C  C98  1  0.60478000  0.06962000  0.33470000  1.0 0.6053266847
C  C99  1  0.83871000  0.33589000  0.08550000  1.0 0.5812793547
C  C100  1  0.83128000  0.20912000  0.13590000  1.0 -0.1913639283
C  C101  1  0.79611000  0.24569000  0.14520000  1.0 0.0017332533
C  C102  1  0.72263000  0.20057000  0.20760000  1.0 -0.1711586156
C  C103  1  0.68192000  0.11708000  0.26380000  1.0 -0.0149847618
C  C104  1  0.71618000  0.07882000  0.25340000  1.0 -0.232045663
C  C105  1  0.78912000  0.12328000  0.19020000  1.0 0.1930464865
C  C106  1  0.76160000  0.99420000  0.16810000  1.0 0.041987253
C  C107  1  0.68460000  0.30920000  0.87990000  1.0 0.1007739659
C  C108  1  0.57640000  0.29160000  0.76600000  1.0 -0.0317828976
C  C109  1  0.54190000  0.14710000  0.80900000  1.0 -0.1753169386
C  C110  1  0.66010000  0.31270000  0.87400000  1.0 0.1007739659
C  C111  1  0.64740000  0.34860000  0.70400000  1.0 -0.2523409477
C  C112  1  0.51940000  0.17860000  0.77800000  1.0 -0.0906391194
N  N1  1  0.91268000  0.17432000  0.67810000  1.0 -0.2566736466
N  N2  1  0.74980000  0.39640000  0.32210000  1.0 0.0878735417
N  N3  1  0.71600000  0.38640000  0.28960000  1.0 0.1485252665
N  N4  1  0.17432000  0.91268000  0.82190000  1.0 -0.2566736466
N  N5  1  0.39640000  0.74980000  0.17790000  1.0 0.0878735417
N  N6  1  0.38640000  0.71600000  0.21040000  1.0 0.1485252665
N  N7  1  0.08732000  0.82568000  0.32190000  1.0 -0.2566736466
N  N8  1  0.25020000  0.60360000  0.67790000  1.0 0.0878735417
N  N9  1  0.28400000  0.61360000  0.71040000  1.0 0.1485252665
N  N10  1  0.82568000  0.08732000  0.17810000  1.0 -0.2566736466
N  N11  1  0.60360000  0.25020000  0.82210000  1.0 0.0878735417
N  N12  1  0.61360000  0.28400000  0.78960000  1.0 0.1485252665
O  O1  1  0.33404000  0.03776000  0.48340000  1.0 -0.6167255517
O  O2  1  0.46847000  0.17833000  0.55200000  1.0 -0.6167255517
O  O3  1  0.64872000  0.21088000  0.57340000  1.0 -0.6167255517
O  O4  1  0.60699000  0.07801000  0.54680000  1.0 -0.7177254236
O  O5  1  0.88828000  0.41652000  0.84740000  1.0 -0.6556899027
O  O6  1  0.01225000  0.43535000  0.87560000  1.0 -0.6826022244
O  O7  1  0.41468000  0.06732000  0.30660000  1.0 -0.7907513803
O  O8  1  0.60252000  0.26148000  0.39220000  1.0 -0.3802780783
O  O9  1  0.03776000  0.33404000  0.01660000  1.0 -0.6167255517
O  O10  1  0.17833000  0.46847000  0.94800000  1.0 -0.6167255517
O  O11  1  0.21088000  0.64872000  0.92660000  1.0 -0.6167255517
O  O12  1  0.07801000  0.60699000  0.95320000  1.0 -0.7177254236
O  O13  1  0.41652000  0.88828000  0.65260000  1.0 -0.6556899027
O  O14  1  0.43535000  0.01225000  0.62440000  1.0 -0.6826022244
O  O15  1  0.06732000  0.41468000  0.19340000  1.0 -0.7907513803
O  O16  1  0.26148000  0.60252000  0.10780000  1.0 -0.3802780783
O  O17  1  0.66596000  0.96224000  0.51660000  1.0 -0.6167255517
O  O18  1  0.53153000  0.82167000  0.44800000  1.0 -0.6167255517
O  O19  1  0.35128000  0.78912000  0.42660000  1.0 -0.6167255517
O  O20  1  0.39301000  0.92199000  0.45320000  1.0 -0.7177254236
O  O21  1  0.11172000  0.58348000  0.15260000  1.0 -0.6556899027
O  O22  1  0.98775000  0.56465000  0.12440000  1.0 -0.6826022244
O  O23  1  0.58532000  0.93268000  0.69340000  1.0 -0.7907513803
O  O24  1  0.39748000  0.73852000  0.60780000  1.0 -0.3802780783
O  O25  1  0.96224000  0.66596000  0.98340000  1.0 -0.6167255517
O  O26  1  0.82167000  0.53153000  0.05200000  1.0 -0.6167255517
O  O27  1  0.78912000  0.35128000  0.07340000  1.0 -0.6167255517
O  O28  1  0.92199000  0.39301000  0.04680000  1.0 -0.7177254236
O  O29  1  0.58348000  0.11172000  0.34740000  1.0 -0.6544522917
O  O30  1  0.56465000  0.98775000  0.37560000  1.0 -0.6826022244
O  O31  1  0.93268000  0.58532000  0.80660000  1.0 -0.7907513803
O  O32  1  0.73852000  0.39748000  0.89220000  1.0 -0.3802780783
