# DDEC6 charges by PACMAN v1.1 (https://github.com/mtap-research/PACMAN-charge/)
data_XAHPEF_ASR_pacman
_symmetry_space_group_name_H-M   'P 1'
_cell_length_a   20.19810000
_cell_length_b   20.19810000
_cell_length_c   14.05110000
_cell_angle_alpha   82.16160000
_cell_angle_beta   97.83840000
_cell_angle_gamma   138.82200000
_symmetry_Int_Tables_number   1
_chemical_formula_structural   NdH23C35NO7
_chemical_formula_sum   'Nd4 H92 C140 N4 O28'
_cell_volume   3733.90405253
_cell_formula_units_Z   4
loop_
 _symmetry_equiv_pos_site_id
 _symmetry_equiv_pos_as_xyz
  1  'x, y, z'
loop_
 _atom_site_type_symbol
 _atom_site_label
 _atom_site_symmetry_multiplicity
 _atom_site_fract_x
 _atom_site_fract_y
 _atom_site_fract_z
 _atom_site_occupancy
 _atom_site_charge
Nd  Nd1  1  0.90754000  0.51012000  0.46409000  1.0 2.0623205924
Nd  Nd2  1  0.51012000  0.90754000  0.03591000  1.0 2.0623205924
Nd  Nd3  1  0.09246000  0.48988000  0.53591000  1.0 2.0623205924
Nd  Nd4  1  0.48988000  0.09246000  0.96409000  1.0 2.0623205924
H  H1  1  0.97894000  0.63278000  0.24521000  1.0 0.4069281318
H  H2  1  0.88317000  0.56511000  0.28946000  1.0 0.3629158163
H  H3  1  0.69647000  0.22621000  0.70966000  1.0 0.1288059899
H  H4  1  0.87517000  0.23435000  0.59172000  1.0 0.1288059899
H  H5  1  0.68006000  0.01382000  0.79150000  1.0 0.1202858002
H  H6  1  0.73784000  0.56090000  0.60888000  1.0 0.0999326106
H  H7  1  0.71187000  0.64913000  0.64677000  1.0 0.0676593283
H  H8  1  0.98899000  0.91129000  0.55758000  1.0 0.0842165822
H  H9  1  0.01496000  0.82308000  0.51969000  1.0 0.1136825397
H  H10  1  0.97312000  0.98202000  0.64017000  1.0 0.0676593283
H  H11  1  0.93825000  0.06493000  0.66771000  1.0 0.0999326106
H  H12  1  0.63916000  0.80418000  0.63787000  1.0 0.0676593283
H  H13  1  0.67401000  0.72127000  0.61032000  1.0 0.0609989777
H  H14  1  0.69104000  0.94930000  0.67810000  1.0 0.0882897326
H  H15  1  0.75181000  0.59077000  0.58682000  1.0 0.0999326106
H  H16  1  0.74464000  0.69510000  0.62228000  1.0 0.0882897326
H  H17  1  0.03571000  0.94099000  0.55431000  1.0 0.0518697114
H  H18  1  0.04288000  0.83666000  0.51885000  1.0 0.0882897326
H  H19  1  0.03931000  0.02951000  0.62513000  1.0 0.0609989777
H  H20  1  0.02650000  0.13104000  0.65317000  1.0 0.0609989777
H  H21  1  0.72220000  0.89070000  0.62847000  1.0 0.0999326106
H  H22  1  0.73501000  0.78915000  0.60044000  1.0 0.0609989777
H  H23  1  0.92263000  0.15123000  0.65354000  1.0 0.1136825397
H  H24  1  0.63278000  0.97894000  0.25479000  1.0 0.4069281318
H  H25  1  0.56511000  0.88317000  0.21054000  1.0 0.3629158163
H  H26  1  0.22621000  0.69647000  0.79034000  1.0 0.1288059899
H  H27  1  0.23435000  0.87517000  0.90828000  1.0 0.1288059899
H  H28  1  0.01382000  0.68006000  0.70850000  1.0 0.1202858002
H  H29  1  0.56090000  0.73784000  0.89112000  1.0 0.0999326106
H  H30  1  0.64913000  0.71187000  0.85323000  1.0 0.0676593283
H  H31  1  0.91129000  0.98899000  0.94242000  1.0 0.0842165822
H  H32  1  0.82308000  0.01496000  0.98031000  1.0 0.1136825397
H  H33  1  0.98202000  0.97312000  0.85983000  1.0 0.0676593283
H  H34  1  0.06493000  0.93825000  0.83229000  1.0 0.0999326106
H  H35  1  0.80418000  0.63916000  0.86213000  1.0 0.0676593283
H  H36  1  0.72127000  0.67401000  0.88968000  1.0 0.0609989777
H  H37  1  0.94930000  0.69104000  0.82190000  1.0 0.0882897326
H  H38  1  0.59077000  0.75181000  0.91318000  1.0 0.0999326106
H  H39  1  0.69510000  0.74464000  0.87772000  1.0 0.0882897326
H  H40  1  0.94099000  0.03571000  0.94569000  1.0 0.0518697114
H  H41  1  0.83666000  0.04288000  0.98115000  1.0 0.0882897326
H  H42  1  0.02951000  0.03931000  0.87487000  1.0 0.0609989777
H  H43  1  0.13104000  0.02650000  0.84683000  1.0 0.0609989777
H  H44  1  0.89070000  0.72220000  0.87153000  1.0 0.0999326106
H  H45  1  0.78915000  0.73501000  0.89956000  1.0 0.0609989777
H  H46  1  0.15123000  0.92263000  0.84646000  1.0 0.1136825397
H  H47  1  0.02106000  0.36722000  0.75479000  1.0 0.4069281318
H  H48  1  0.11683000  0.43489000  0.71054000  1.0 0.3629158163
H  H49  1  0.30353000  0.77379000  0.29034000  1.0 0.1288059899
H  H50  1  0.12483000  0.76565000  0.40828000  1.0 0.1288059899
H  H51  1  0.31994000  0.98618000  0.20850000  1.0 0.1202858002
H  H52  1  0.26216000  0.43910000  0.39112000  1.0 0.0999326106
H  H53  1  0.28813000  0.35087000  0.35323000  1.0 0.0676593283
H  H54  1  0.01101000  0.08871000  0.44242000  1.0 0.0842165822
H  H55  1  0.98504000  0.17692000  0.48031000  1.0 0.1136825397
H  H56  1  0.02688000  0.01798000  0.35983000  1.0 0.0676593283
H  H57  1  0.06175000  0.93507000  0.33229000  1.0 0.0999326106
H  H58  1  0.36084000  0.19582000  0.36213000  1.0 0.0676593283
H  H59  1  0.32599000  0.27873000  0.38968000  1.0 0.0609989777
H  H60  1  0.30896000  0.05070000  0.32190000  1.0 0.0882897326
H  H61  1  0.24819000  0.40923000  0.41318000  1.0 0.0999326106
H  H62  1  0.25536000  0.30490000  0.37772000  1.0 0.0882897326
H  H63  1  0.96429000  0.05901000  0.44569000  1.0 0.0518697114
H  H64  1  0.95712000  0.16334000  0.48115000  1.0 0.0882897326
H  H65  1  0.96069000  0.97049000  0.37487000  1.0 0.0609989777
H  H66  1  0.97350000  0.86896000  0.34683000  1.0 0.0609989777
H  H67  1  0.27780000  0.10930000  0.37153000  1.0 0.0999326106
H  H68  1  0.26499000  0.21085000  0.39956000  1.0 0.0609989777
H  H69  1  0.07737000  0.84877000  0.34646000  1.0 0.1136825397
H  H70  1  0.36722000  0.02106000  0.74521000  1.0 0.4069281318
H  H71  1  0.43489000  0.11683000  0.78946000  1.0 0.3629158163
H  H72  1  0.77379000  0.30353000  0.20966000  1.0 0.1288059899
H  H73  1  0.76565000  0.12483000  0.09172000  1.0 0.1288059899
H  H74  1  0.98618000  0.31994000  0.29150000  1.0 0.1202858002
H  H75  1  0.43910000  0.26216000  0.10888000  1.0 0.0999326106
H  H76  1  0.35087000  0.28813000  0.14677000  1.0 0.0676593283
H  H77  1  0.08871000  0.01101000  0.05758000  1.0 0.0842165822
H  H78  1  0.17692000  0.98504000  0.01969000  1.0 0.1136825397
H  H79  1  0.01798000  0.02688000  0.14017000  1.0 0.0676593283
H  H80  1  0.93507000  0.06175000  0.16771000  1.0 0.0999326106
H  H81  1  0.19582000  0.36084000  0.13787000  1.0 0.0676593283
H  H82  1  0.27873000  0.32599000  0.11032000  1.0 0.0609989777
H  H83  1  0.05070000  0.30896000  0.17810000  1.0 0.0882897326
H  H84  1  0.40923000  0.24819000  0.08682000  1.0 0.0999326106
H  H85  1  0.30490000  0.25536000  0.12228000  1.0 0.0882897326
H  H86  1  0.05901000  0.96429000  0.05431000  1.0 0.0518697114
H  H87  1  0.16334000  0.95712000  0.01885000  1.0 0.0882897326
H  H88  1  0.97049000  0.96069000  0.12513000  1.0 0.0609989777
H  H89  1  0.86896000  0.97350000  0.15317000  1.0 0.0609989777
H  H90  1  0.10930000  0.27780000  0.12847000  1.0 0.0999326106
H  H91  1  0.21085000  0.26499000  0.10044000  1.0 0.0609989777
H  H92  1  0.84877000  0.07737000  0.15354000  1.0 0.1136825397
C  C1  1  0.67771000  0.11389000  0.76170000  1.0 -0.0027196347
C  C2  1  0.71820000  0.19840000  0.70480000  1.0 -0.1302529214
C  C3  1  0.79053000  0.24187000  0.64080000  1.0 -0.0111429354
C  C4  1  0.82368000  0.20252000  0.63380000  1.0 -0.19140505
C  C5  1  0.78057000  0.11563000  0.68910000  1.0 0.0882897326
C  C6  1  0.60082000  0.06678000  0.83400000  1.0 0.6311512613
C  C7  1  0.70858000  0.07222000  0.75320000  1.0 -0.2026282824
C  C8  1  0.83290000  0.33250000  0.57970000  1.0 0.6100153202
C  C9  1  0.89483000  0.63057000  0.52250000  1.0 0.4160208428
C  C10  1  0.87887000  0.68373000  0.56070000  1.0 -0.0415241518
C  C11  1  0.78880000  0.63200000  0.59850000  1.0 -0.053001624
C  C12  1  0.77338000  0.68442000  0.62100000  1.0 -0.1075827214
C  C13  1  0.84794000  0.78846000  0.60570000  1.0 0.0341593246
C  C14  1  0.93802000  0.84018000  0.56800000  1.0 -0.0205611424
C  C15  1  0.95343000  0.78777000  0.54550000  1.0 -0.0782349607
C  C16  1  0.82680000  0.84380000  0.62270000  1.0 -0.0111429354
C  C17  1  0.90530000  0.94590000  0.63970000  1.0 0.0099220927
C  C18  1  0.88462000  0.99518000  0.65610000  1.0 -0.0111429354
C  C19  1  0.78544000  0.94236000  0.65540000  1.0 -0.0111429354
C  C20  1  0.70693000  0.84027000  0.63830000  1.0 -0.1302529214
C  C21  1  0.72761000  0.79099000  0.62200000  1.0 -0.1590788751
C  C22  1  0.76030000  0.99250000  0.67200000  1.0 -0.0260926312
C  C23  1  0.89806000  0.70394000  0.54950000  1.0 -0.0111429354
C  C24  1  0.80939000  0.66181000  0.58020000  1.0 -0.053001624
C  C25  1  0.80517000  0.72383000  0.60130000  1.0 -0.0111429354
C  C26  1  0.88952000  0.82788000  0.59160000  1.0 0.0341593246
C  C27  1  0.97810000  0.86990000  0.56090000  1.0 -0.1075827214
C  C28  1  0.98230000  0.80790000  0.53980000  1.0 -0.0950680649
C  C29  1  0.88840000  0.89980000  0.61010000  1.0 -0.0111429354
C  C30  1  0.97490000  0.00130000  0.62580000  1.0 -0.19140505
C  C31  1  0.96730000  0.06170000  0.64250000  1.0 -0.1466664797
C  C32  1  0.87320000  0.02040000  0.64350000  1.0 -0.0111429354
C  C33  1  0.78650000  0.91890000  0.62780000  1.0 -0.0027196347
C  C34  1  0.79420000  0.85860000  0.61110000  1.0 0.0099220927
C  C35  1  0.86050000  0.08170000  0.66180000  1.0 -0.0415241518
C  C36  1  0.11389000  0.67771000  0.73830000  1.0 -0.0027196347
C  C37  1  0.19840000  0.71820000  0.79520000  1.0 -0.1302529214
C  C38  1  0.24187000  0.79053000  0.85920000  1.0 -0.0111429354
C  C39  1  0.20252000  0.82368000  0.86620000  1.0 -0.19140505
C  C40  1  0.11563000  0.78057000  0.81090000  1.0 0.0882897326
C  C41  1  0.06678000  0.60082000  0.66600000  1.0 0.6311512613
C  C42  1  0.07222000  0.70858000  0.74680000  1.0 -0.2026282824
C  C43  1  0.33250000  0.83290000  0.92030000  1.0 0.6100153202
C  C44  1  0.63057000  0.89483000  0.97750000  1.0 0.4160208428
C  C45  1  0.68373000  0.87887000  0.93930000  1.0 -0.0415241518
C  C46  1  0.63200000  0.78880000  0.90150000  1.0 -0.053001624
C  C47  1  0.68442000  0.77338000  0.87900000  1.0 -0.1075827214
C  C48  1  0.78846000  0.84794000  0.89430000  1.0 0.0341593246
C  C49  1  0.84018000  0.93802000  0.93200000  1.0 -0.0205611424
C  C50  1  0.78777000  0.95343000  0.95450000  1.0 -0.0782349607
C  C51  1  0.84380000  0.82680000  0.87730000  1.0 -0.0111429354
C  C52  1  0.94590000  0.90530000  0.86030000  1.0 0.0099220927
C  C53  1  0.99518000  0.88462000  0.84390000  1.0 -0.0111429354
C  C54  1  0.94236000  0.78544000  0.84460000  1.0 -0.0111429354
C  C55  1  0.84027000  0.70693000  0.86170000  1.0 -0.1302529214
C  C56  1  0.79099000  0.72761000  0.87800000  1.0 -0.1590788751
C  C57  1  0.99250000  0.76030000  0.82800000  1.0 -0.0260926312
C  C58  1  0.70394000  0.89806000  0.95050000  1.0 -0.0111429354
C  C59  1  0.66181000  0.80939000  0.91980000  1.0 -0.053001624
C  C60  1  0.72383000  0.80517000  0.89870000  1.0 -0.0111429354
C  C61  1  0.82788000  0.88952000  0.90840000  1.0 0.0341593246
C  C62  1  0.86990000  0.97810000  0.93910000  1.0 -0.1075827214
C  C63  1  0.80790000  0.98230000  0.96020000  1.0 -0.0950680649
C  C64  1  0.89980000  0.88840000  0.88990000  1.0 -0.0111429354
C  C65  1  0.00130000  0.97490000  0.87420000  1.0 -0.19140505
C  C66  1  0.06170000  0.96730000  0.85750000  1.0 -0.1466664797
C  C67  1  0.02040000  0.87320000  0.85650000  1.0 -0.0111429354
C  C68  1  0.91890000  0.78650000  0.87220000  1.0 -0.0027196347
C  C69  1  0.85860000  0.79420000  0.88890000  1.0 0.0099220927
C  C70  1  0.08170000  0.86050000  0.83820000  1.0 -0.0415241518
C  C71  1  0.32229000  0.88611000  0.23830000  1.0 -0.0027196347
C  C72  1  0.28180000  0.80160000  0.29520000  1.0 -0.1302529214
C  C73  1  0.20947000  0.75813000  0.35920000  1.0 -0.0111429354
C  C74  1  0.17632000  0.79748000  0.36620000  1.0 -0.19140505
C  C75  1  0.21943000  0.88437000  0.31090000  1.0 0.0882897326
C  C76  1  0.39918000  0.93322000  0.16600000  1.0 0.6311512613
C  C77  1  0.29142000  0.92778000  0.24680000  1.0 -0.2026282824
C  C78  1  0.16710000  0.66750000  0.42030000  1.0 0.6100153202
C  C79  1  0.10517000  0.36943000  0.47750000  1.0 0.4160208428
C  C80  1  0.12113000  0.31627000  0.43930000  1.0 -0.0415241518
C  C81  1  0.21120000  0.36800000  0.40150000  1.0 -0.053001624
C  C82  1  0.22662000  0.31558000  0.37900000  1.0 -0.1075827214
C  C83  1  0.15206000  0.21154000  0.39430000  1.0 0.0341593246
C  C84  1  0.06198000  0.15982000  0.43200000  1.0 -0.0205611424
C  C85  1  0.04657000  0.21223000  0.45450000  1.0 -0.0782349607
C  C86  1  0.17320000  0.15620000  0.37730000  1.0 -0.0111429354
C  C87  1  0.09470000  0.05410000  0.36030000  1.0 0.0099220927
C  C88  1  0.11538000  0.00482000  0.34390000  1.0 -0.0111429354
C  C89  1  0.21456000  0.05764000  0.34460000  1.0 -0.0111429354
C  C90  1  0.29307000  0.15973000  0.36170000  1.0 -0.1302529214
C  C91  1  0.27239000  0.20901000  0.37800000  1.0 -0.1590788751
C  C92  1  0.23970000  0.00750000  0.32800000  1.0 -0.0205611424
C  C93  1  0.10194000  0.29606000  0.45050000  1.0 -0.0111429354
C  C94  1  0.19061000  0.33819000  0.41980000  1.0 -0.053001624
C  C95  1  0.19483000  0.27617000  0.39870000  1.0 -0.0111429354
C  C96  1  0.11048000  0.17212000  0.40840000  1.0 0.0341593246
C  C97  1  0.02190000  0.13010000  0.43910000  1.0 -0.1075827214
C  C98  1  0.01770000  0.19210000  0.46020000  1.0 -0.0950680649
C  C99  1  0.11160000  0.10020000  0.38990000  1.0 -0.0111429354
C  C100  1  0.02510000  0.99870000  0.37420000  1.0 -0.19140505
C  C101  1  0.03270000  0.93830000  0.35750000  1.0 -0.1466664797
C  C102  1  0.12680000  0.97960000  0.35650000  1.0 -0.0111429354
C  C103  1  0.21350000  0.08110000  0.37220000  1.0 -0.0027196347
C  C104  1  0.20580000  0.14140000  0.38890000  1.0 0.0099220927
C  C105  1  0.13950000  0.91830000  0.33820000  1.0 -0.0415241518
C  C106  1  0.88611000  0.32229000  0.26170000  1.0 -0.0027196347
C  C107  1  0.80160000  0.28180000  0.20480000  1.0 -0.1302529214
C  C108  1  0.75813000  0.20947000  0.14080000  1.0 -0.0111429354
C  C109  1  0.79748000  0.17632000  0.13380000  1.0 -0.19140505
C  C110  1  0.88437000  0.21943000  0.18910000  1.0 0.0882897326
C  C111  1  0.93322000  0.39918000  0.33400000  1.0 0.6311512613
C  C112  1  0.92778000  0.29142000  0.25320000  1.0 -0.2026282824
C  C113  1  0.66750000  0.16710000  0.07970000  1.0 0.6100153202
C  C114  1  0.36943000  0.10517000  0.02250000  1.0 0.4160208428
C  C115  1  0.31627000  0.12113000  0.06070000  1.0 -0.0415241518
C  C116  1  0.36800000  0.21120000  0.09850000  1.0 -0.053001624
C  C117  1  0.31558000  0.22662000  0.12100000  1.0 -0.1075827214
C  C118  1  0.21154000  0.15206000  0.10570000  1.0 0.0341593246
C  C119  1  0.15982000  0.06198000  0.06800000  1.0 -0.0205611424
C  C120  1  0.21223000  0.04657000  0.04550000  1.0 -0.0782349607
C  C121  1  0.15620000  0.17320000  0.12270000  1.0 -0.0111429354
C  C122  1  0.05410000  0.09470000  0.13970000  1.0 0.0099220927
C  C123  1  0.00482000  0.11538000  0.15610000  1.0 -0.0111429354
C  C124  1  0.05764000  0.21456000  0.15540000  1.0 -0.0111429354
C  C125  1  0.15973000  0.29307000  0.13830000  1.0 -0.1302529214
C  C126  1  0.20901000  0.27239000  0.12200000  1.0 -0.1590788751
C  C127  1  0.00750000  0.23970000  0.17200000  1.0 -0.0260926312
C  C128  1  0.29606000  0.10194000  0.04950000  1.0 -0.0111429354
C  C129  1  0.33819000  0.19061000  0.08020000  1.0 -0.053001624
C  C130  1  0.27617000  0.19483000  0.10130000  1.0 -0.0111429354
C  C131  1  0.17212000  0.11048000  0.09160000  1.0 0.0341593246
C  C132  1  0.13010000  0.02190000  0.06090000  1.0 -0.1075827214
C  C133  1  0.19210000  0.01770000  0.03980000  1.0 -0.0950680649
C  C134  1  0.10020000  0.11160000  0.11010000  1.0 -0.0111429354
C  C135  1  0.99870000  0.02510000  0.12580000  1.0 -0.19140505
C  C136  1  0.93830000  0.03270000  0.14250000  1.0 -0.1466664797
C  C137  1  0.97960000  0.12680000  0.14350000  1.0 -0.0111429354
C  C138  1  0.08110000  0.21350000  0.12780000  1.0 -0.0027196347
C  C139  1  0.14140000  0.20580000  0.11110000  1.0 0.0099220927
C  C140  1  0.91830000  0.13950000  0.16180000  1.0 -0.0415241518
N  N1  1  0.81278000  0.07482000  0.67830000  1.0 -0.0205611424
N  N2  1  0.07482000  0.81278000  0.82170000  1.0 -0.0205611424
N  N3  1  0.18722000  0.92518000  0.32170000  1.0 -0.0205611424
N  N4  1  0.92518000  0.18722000  0.17830000  1.0 -0.0205611424
O  O1  1  0.56187000  0.98613000  0.87760000  1.0 -0.6618026844
O  O2  1  0.58077000  0.11123000  0.84430000  1.0 -0.6618026844
O  O3  1  0.78394000  0.34926000  0.56340000  1.0 -0.6095969653
O  O4  1  0.91843000  0.39097000  0.54410000  1.0 -0.7457820303
O  O5  1  0.94703000  0.59677000  0.30000000  1.0 -0.7783064372
O  O6  1  0.82561000  0.53779000  0.54050000  1.0 -0.5688952482
O  O7  1  0.96980000  0.67280000  0.47820000  1.0 -0.6029167748
O  O8  1  0.98613000  0.56187000  0.62240000  1.0 -0.6618026844
O  O9  1  0.11123000  0.58077000  0.65570000  1.0 -0.6618026844
O  O10  1  0.34926000  0.78394000  0.93660000  1.0 -0.6095969653
O  O11  1  0.39097000  0.91843000  0.95590000  1.0 -0.7457820303
O  O12  1  0.59677000  0.94703000  0.20000000  1.0 -0.7783064372
O  O13  1  0.53779000  0.82561000  0.95950000  1.0 -0.5688952482
O  O14  1  0.67280000  0.96980000  0.02180000  1.0 -0.6029167748
O  O15  1  0.43813000  0.01387000  0.12240000  1.0 -0.6618026844
O  O16  1  0.41923000  0.88877000  0.15570000  1.0 -0.6618026844
O  O17  1  0.21606000  0.65074000  0.43660000  1.0 -0.6095969653
O  O18  1  0.08157000  0.60903000  0.45590000  1.0 -0.7457820303
O  O19  1  0.05297000  0.40323000  0.70000000  1.0 -0.7783064372
O  O20  1  0.17439000  0.46221000  0.45950000  1.0 -0.5688952482
O  O21  1  0.03020000  0.32720000  0.52180000  1.0 -0.6029167748
O  O22  1  0.01387000  0.43813000  0.37760000  1.0 -0.6618026844
O  O23  1  0.88877000  0.41923000  0.34430000  1.0 -0.6618026844
O  O24  1  0.65074000  0.21606000  0.06340000  1.0 -0.6095969653
O  O25  1  0.60903000  0.08157000  0.04410000  1.0 -0.7457820303
O  O26  1  0.40323000  0.05297000  0.80000000  1.0 -0.7783064372
O  O27  1  0.46221000  0.17439000  0.04050000  1.0 -0.5688952482
O  O28  1  0.32720000  0.03020000  0.97820000  1.0 -0.6029167748
