# DDEC6 charges by PACMAN v1.1 (https://github.com/mtap-research/PACMAN-charge/)
data_XAKGOJ_FSR_pacman
_symmetry_space_group_name_H-M   'P 1'
_cell_length_a   18.79800000
_cell_length_b   18.79800000
_cell_length_c   18.79800000
_cell_angle_alpha   60.00000000
_cell_angle_beta   60.00000000
_cell_angle_gamma   60.00000000
_symmetry_Int_Tables_number   1
_chemical_formula_structural   ZnH2C6O5
_chemical_formula_sum   'Zn12 H24 C72 O60'
_cell_volume   4696.99327055
_cell_formula_units_Z   12
loop_
 _symmetry_equiv_pos_site_id
 _symmetry_equiv_pos_as_xyz
  1  'x, y, z'
loop_
 _atom_site_type_symbol
 _atom_site_label
 _atom_site_symmetry_multiplicity
 _atom_site_fract_x
 _atom_site_fract_y
 _atom_site_fract_z
 _atom_site_occupancy
 _atom_site_charge
Zn  Zn1  1  0.07930000  0.50000000  0.50000000  1.0 1.0313757576
Zn  Zn2  1  0.50000000  0.92070000  0.07930000  1.0 1.0313757576
Zn  Zn3  1  0.50000000  0.07930000  0.92070000  1.0 1.0313757576
Zn  Zn4  1  0.92070000  0.50000000  0.50000000  1.0 1.0313757576
Zn  Zn5  1  0.50000000  0.50000000  0.07930000  1.0 1.0313757576
Zn  Zn6  1  0.92070000  0.07930000  0.50000000  1.0 1.0313757576
Zn  Zn7  1  0.07930000  0.92070000  0.50000000  1.0 1.0313757576
Zn  Zn8  1  0.50000000  0.50000000  0.92070000  1.0 1.0313757576
Zn  Zn9  1  0.50000000  0.07930000  0.50000000  1.0 1.0313757576
Zn  Zn10  1  0.07930000  0.50000000  0.92070000  1.0 1.0313757576
Zn  Zn11  1  0.92070000  0.50000000  0.07930000  1.0 1.0313757576
Zn  Zn12  1  0.50000000  0.92070000  0.50000000  1.0 1.0313757576
H  H1  1  0.01703000  0.52487000  0.22905000  1.0 0.1496741075
H  H2  1  0.22905000  0.22905000  0.01703000  1.0 0.1496741075
H  H3  1  0.52487000  0.01703000  0.22905000  1.0 0.1496741075
H  H4  1  0.22905000  0.22905000  0.52487000  1.0 0.1496741075
H  H5  1  0.52487000  0.22905000  0.01703000  1.0 0.1496741075
H  H6  1  0.22905000  0.01703000  0.22905000  1.0 0.1496741075
H  H7  1  0.01703000  0.22905000  0.52487000  1.0 0.1496741075
H  H8  1  0.22905000  0.52487000  0.22905000  1.0 0.1496741075
H  H9  1  0.22905000  0.01703000  0.52487000  1.0 0.1496741075
H  H10  1  0.01703000  0.22905000  0.22905000  1.0 0.1496741075
H  H11  1  0.22905000  0.52487000  0.01703000  1.0 0.1496741075
H  H12  1  0.52487000  0.22905000  0.22905000  1.0 0.1496741075
H  H13  1  0.98297000  0.77095000  0.77095000  1.0 0.1496741075
H  H14  1  0.77095000  0.47513000  0.98297000  1.0 0.1496741075
H  H15  1  0.47513000  0.77095000  0.77095000  1.0 0.1496741075
H  H16  1  0.77095000  0.98297000  0.47513000  1.0 0.1496741075
H  H17  1  0.47513000  0.77095000  0.98297000  1.0 0.1496741075
H  H18  1  0.77095000  0.47513000  0.77095000  1.0 0.1496741075
H  H19  1  0.98297000  0.77095000  0.47513000  1.0 0.1496741075
H  H20  1  0.77095000  0.98297000  0.77095000  1.0 0.1496741075
H  H21  1  0.77095000  0.77095000  0.47513000  1.0 0.1496741075
H  H22  1  0.98297000  0.47513000  0.77095000  1.0 0.1496741075
H  H23  1  0.77095000  0.77095000  0.98297000  1.0 0.1496741075
H  H24  1  0.47513000  0.98297000  0.77095000  1.0 0.1496741075
C  C1  1  0.07320000  0.52760000  0.19960000  1.0 -0.0438349283
C  C2  1  0.19960000  0.19960000  0.07320000  1.0 -0.0438349283
C  C3  1  0.52760000  0.07320000  0.19960000  1.0 -0.0438349283
C  C4  1  0.19960000  0.19960000  0.52760000  1.0 -0.0438349283
C  C5  1  0.52760000  0.19960000  0.07320000  1.0 -0.0438349283
C  C6  1  0.19960000  0.07320000  0.19960000  1.0 -0.0438349283
C  C7  1  0.07320000  0.19960000  0.52760000  1.0 -0.0438349283
C  C8  1  0.19960000  0.52760000  0.19960000  1.0 -0.0438349283
C  C9  1  0.19960000  0.07320000  0.52760000  1.0 -0.0438349283
C  C10  1  0.07320000  0.19960000  0.19960000  1.0 -0.0438349283
C  C11  1  0.19960000  0.52760000  0.07320000  1.0 -0.0438349283
C  C12  1  0.52760000  0.19960000  0.19960000  1.0 -0.0438349283
C  C13  1  0.92680000  0.80040000  0.80040000  1.0 -0.0438349283
C  C14  1  0.80040000  0.47240000  0.92680000  1.0 -0.0438349283
C  C15  1  0.47240000  0.80040000  0.80040000  1.0 -0.0438349283
C  C16  1  0.80040000  0.92680000  0.47240000  1.0 -0.0438349283
C  C17  1  0.47240000  0.80040000  0.92680000  1.0 -0.0438349283
C  C18  1  0.80040000  0.47240000  0.80040000  1.0 -0.0438349283
C  C19  1  0.92680000  0.80040000  0.47240000  1.0 -0.0438349283
C  C20  1  0.80040000  0.92680000  0.80040000  1.0 -0.0438349283
C  C21  1  0.80040000  0.80040000  0.47240000  1.0 -0.0438349283
C  C22  1  0.92680000  0.47240000  0.80040000  1.0 -0.0438349283
C  C23  1  0.80040000  0.80040000  0.92680000  1.0 -0.0438349283
C  C24  1  0.47240000  0.92680000  0.80040000  1.0 -0.0438349283
C  C25  1  0.11340000  0.52980000  0.24340000  1.0 -0.0529802548
C  C26  1  0.07030000  0.52370000  0.33570000  1.0 0.6018907669
C  C27  1  0.24340000  0.11340000  0.11340000  1.0 -0.0529802548
C  C28  1  0.33570000  0.07030000  0.07030000  1.0 0.6018907669
C  C29  1  0.52980000  0.11340000  0.11340000  1.0 -0.0529802548
C  C30  1  0.52370000  0.07030000  0.07030000  1.0 0.6018907669
C  C31  1  0.11340000  0.24340000  0.52980000  1.0 -0.0529802548
C  C32  1  0.07030000  0.33570000  0.52370000  1.0 0.6018907669
C  C33  1  0.52980000  0.24340000  0.11340000  1.0 -0.0529802548
C  C34  1  0.52370000  0.33570000  0.07030000  1.0 0.6018907669
C  C35  1  0.11340000  0.11340000  0.24340000  1.0 -0.0529802548
C  C36  1  0.07030000  0.07030000  0.33570000  1.0 0.6018907669
C  C37  1  0.11340000  0.11340000  0.52980000  1.0 -0.0529802548
C  C38  1  0.07030000  0.07030000  0.52370000  1.0 0.6018907669
C  C39  1  0.24340000  0.52980000  0.11340000  1.0 -0.0529802548
C  C40  1  0.33570000  0.52370000  0.07030000  1.0 0.6018907669
C  C41  1  0.24340000  0.11340000  0.52980000  1.0 -0.0529802548
C  C42  1  0.33570000  0.07030000  0.52370000  1.0 0.6018907669
C  C43  1  0.11340000  0.24340000  0.11340000  1.0 -0.0529802548
C  C44  1  0.07030000  0.33570000  0.07030000  1.0 0.6018907669
C  C45  1  0.11340000  0.52980000  0.11340000  1.0 -0.0529802548
C  C46  1  0.07030000  0.52370000  0.07030000  1.0 0.6018907669
C  C47  1  0.52980000  0.11340000  0.24340000  1.0 -0.0529802548
C  C48  1  0.52370000  0.07030000  0.33570000  1.0 0.6018907669
C  C49  1  0.88660000  0.88660000  0.75660000  1.0 -0.0529802548
C  C50  1  0.92970000  0.92970000  0.66430000  1.0 0.6018907669
C  C51  1  0.75660000  0.47020000  0.88660000  1.0 -0.0529802548
C  C52  1  0.66430000  0.47630000  0.92970000  1.0 0.6018907669
C  C53  1  0.47020000  0.75660000  0.88660000  1.0 -0.0529802548
C  C54  1  0.47630000  0.66430000  0.92970000  1.0 0.6018907669
C  C55  1  0.88660000  0.88660000  0.47020000  1.0 -0.0529802548
C  C56  1  0.92970000  0.92970000  0.47630000  1.0 0.6018907669
C  C57  1  0.47020000  0.88660000  0.88660000  1.0 -0.0529802548
C  C58  1  0.47630000  0.92970000  0.92970000  1.0 0.6018907669
C  C59  1  0.88660000  0.47020000  0.75660000  1.0 -0.0529802548
C  C60  1  0.92970000  0.47630000  0.66430000  1.0 0.6018907669
C  C61  1  0.88660000  0.75660000  0.47020000  1.0 -0.0529802548
C  C62  1  0.92970000  0.66430000  0.47630000  1.0 0.6018907669
C  C63  1  0.75660000  0.88660000  0.88660000  1.0 -0.0529802548
C  C64  1  0.66430000  0.92970000  0.92970000  1.0 0.6018907669
C  C65  1  0.75660000  0.88660000  0.47020000  1.0 -0.0529802548
C  C66  1  0.66430000  0.92970000  0.47630000  1.0 0.6018907669
C  C67  1  0.88660000  0.47020000  0.88660000  1.0 -0.0529802548
C  C68  1  0.92970000  0.47630000  0.92970000  1.0 0.6018907669
C  C69  1  0.88660000  0.75660000  0.88660000  1.0 -0.0529802548
C  C70  1  0.92970000  0.66430000  0.92970000  1.0 0.6018907669
C  C71  1  0.47020000  0.88660000  0.75660000  1.0 -0.0529802548
C  C72  1  0.47630000  0.92970000  0.66430000  1.0 0.6018907669
O  O1  1  0.11190000  0.51990000  0.37290000  1.0 -0.5054983921
O  O2  1  0.37290000  0.99530000  0.11190000  1.0 -0.5054983921
O  O3  1  0.51990000  0.11190000  0.99530000  1.0 -0.5054983921
O  O4  1  0.99530000  0.37290000  0.51990000  1.0 -0.5054983921
O  O5  1  0.51990000  0.37290000  0.11190000  1.0 -0.5045013808
O  O6  1  0.99530000  0.11190000  0.37290000  1.0 -0.5054983921
O  O7  1  0.11190000  0.99530000  0.51990000  1.0 -0.5054983921
O  O8  1  0.37290000  0.51990000  0.99530000  1.0 -0.5045013808
O  O9  1  0.37290000  0.11190000  0.51990000  1.0 -0.5054983921
O  O10  1  0.11190000  0.37290000  0.99530000  1.0 -0.5054983921
O  O11  1  0.99530000  0.51990000  0.11190000  1.0 -0.5045013808
O  O12  1  0.51990000  0.99530000  0.37290000  1.0 -0.5054983921
O  O13  1  0.88810000  0.00470000  0.62710000  1.0 -0.5045013808
O  O14  1  0.62710000  0.48010000  0.88810000  1.0 -0.5054983921
O  O15  1  0.48010000  0.62710000  0.00470000  1.0 -0.5054983921
O  O16  1  0.00470000  0.88810000  0.48010000  1.0 -0.5054983921
O  O17  1  0.48010000  0.00470000  0.88810000  1.0 -0.5054983921
O  O18  1  0.00470000  0.48010000  0.62710000  1.0 -0.5054983921
O  O19  1  0.88810000  0.62710000  0.48010000  1.0 -0.5054983921
O  O20  1  0.62710000  0.88810000  0.00470000  1.0 -0.5054983921
O  O21  1  0.62710000  0.00470000  0.48010000  1.0 -0.5054983921
O  O22  1  0.88810000  0.48010000  0.00470000  1.0 -0.5054983921
O  O23  1  0.00470000  0.62710000  0.88810000  1.0 -0.5054983921
O  O24  1  0.48010000  0.88810000  0.62710000  1.0 -0.5054983921
O  O25  1  0.88810000  0.48010000  0.62710000  1.0 -0.5054983921
O  O26  1  0.62710000  0.00470000  0.88810000  1.0 -0.5054983921
O  O27  1  0.48010000  0.88810000  0.00470000  1.0 -0.5054983921
O  O28  1  0.00470000  0.62710000  0.48010000  1.0 -0.5054983921
O  O29  1  0.48010000  0.62710000  0.88810000  1.0 -0.5054983921
O  O30  1  0.00470000  0.88810000  0.62710000  1.0 -0.5054983921
O  O31  1  0.88810000  0.00470000  0.48010000  1.0 -0.5054983921
O  O32  1  0.62710000  0.48010000  0.00470000  1.0 -0.5054983921
O  O33  1  0.62710000  0.88810000  0.48010000  1.0 -0.5054983921
O  O34  1  0.88810000  0.62710000  0.00470000  1.0 -0.5054983921
O  O35  1  0.00470000  0.48010000  0.88810000  1.0 -0.5054983921
O  O36  1  0.48010000  0.00470000  0.62710000  1.0 -0.5054983921
O  O37  1  0.11190000  0.99530000  0.37290000  1.0 -0.5054983921
O  O38  1  0.37290000  0.51990000  0.11190000  1.0 -0.5045013808
O  O39  1  0.51990000  0.37290000  0.99530000  1.0 -0.5045013808
O  O40  1  0.99530000  0.11190000  0.51990000  1.0 -0.5054983921
O  O41  1  0.51990000  0.99530000  0.11190000  1.0 -0.5054983921
O  O42  1  0.99530000  0.51990000  0.37290000  1.0 -0.5045013808
O  O43  1  0.11190000  0.37290000  0.51990000  1.0 -0.5054983921
O  O44  1  0.37290000  0.11190000  0.99530000  1.0 -0.5054983921
O  O45  1  0.37290000  0.99530000  0.51990000  1.0 -0.5054983921
O  O46  1  0.11190000  0.51990000  0.99530000  1.0 -0.5054983921
O  O47  1  0.99530000  0.37290000  0.11190000  1.0 -0.5054983921
O  O48  1  0.51990000  0.11190000  0.37290000  1.0 -0.5054983921
O  O49  1  0.18560000  0.50000000  0.50000000  1.0 -0.3139812532
O  O50  1  0.50000000  0.81440000  0.18560000  1.0 -0.3154613756
O  O51  1  0.50000000  0.18560000  0.81440000  1.0 -0.3154613756
O  O52  1  0.81440000  0.50000000  0.50000000  1.0 -0.3139812532
O  O53  1  0.50000000  0.50000000  0.18560000  1.0 -0.3329486432
O  O54  1  0.81440000  0.18560000  0.50000000  1.0 -0.3154613756
O  O55  1  0.18560000  0.81440000  0.50000000  1.0 -0.3154613756
O  O56  1  0.50000000  0.50000000  0.81440000  1.0 -0.3329486432
O  O57  1  0.50000000  0.18560000  0.50000000  1.0 -0.3139812532
O  O58  1  0.18560000  0.50000000  0.81440000  1.0 -0.3154613756
O  O59  1  0.81440000  0.50000000  0.18560000  1.0 -0.3329486432
O  O60  1  0.50000000  0.81440000  0.50000000  1.0 -0.3154613756
