# DDEC6 charges by PACMAN v1.1 (https://github.com/mtap-research/PACMAN-charge/)
data_XAKVUE_ASR_pacman
_symmetry_space_group_name_H-M   'P 1'
_cell_length_a   10.56800000
_cell_length_b   10.61200000
_cell_length_c   14.91850000
_cell_angle_alpha   90.00000000
_cell_angle_beta   132.13100000
_cell_angle_gamma   90.00000000
_symmetry_Int_Tables_number   1
_chemical_formula_structural   NiH8C14S2(N3O)2
_chemical_formula_sum   'Ni2 H16 C28 S4 N12 O4'
_cell_volume   1240.77357803
_cell_formula_units_Z   2
loop_
 _symmetry_equiv_pos_site_id
 _symmetry_equiv_pos_as_xyz
  1  'x, y, z'
loop_
 _atom_site_type_symbol
 _atom_site_label
 _atom_site_symmetry_multiplicity
 _atom_site_fract_x
 _atom_site_fract_y
 _atom_site_fract_z
 _atom_site_occupancy
 _atom_site_charge
Ni  Ni1  1  0.00000000  0.50000000  0.50000000  1.0 0.2791775519
Ni  Ni2  1  0.00000000  0.00000000  0.00000000  1.0 0.2791775519
H  H1  1  0.31070000  0.51560000  0.23610000  1.0 0.1246595586
H  H2  1  0.03830000  0.56660000  0.15880000  1.0 0.139173081
H  H3  1  0.92000000  0.75750000  0.06610000  1.0 0.1110840159
H  H4  1  0.33140000  0.85580000  0.12740000  1.0 0.1110840159
H  H5  1  0.68930000  0.01560000  0.26390000  1.0 0.1246595586
H  H6  1  0.96170000  0.06660000  0.34120000  1.0 0.139173081
H  H7  1  0.08000000  0.25750000  0.43390000  1.0 0.1110840159
H  H8  1  0.66860000  0.35580000  0.37260000  1.0 0.1110840159
H  H9  1  0.68930000  0.48440000  0.76390000  1.0 0.1246595586
H  H10  1  0.96170000  0.43340000  0.84120000  1.0 0.139173081
H  H11  1  0.08000000  0.24250000  0.93390000  1.0 0.1110840159
H  H12  1  0.66860000  0.14420000  0.87260000  1.0 0.1110840159
H  H13  1  0.31070000  0.98440000  0.73610000  1.0 0.1246595586
H  H14  1  0.03830000  0.93340000  0.65880000  1.0 0.139173081
H  H15  1  0.92000000  0.74250000  0.56610000  1.0 0.1110840159
H  H16  1  0.33140000  0.64420000  0.62740000  1.0 0.1110840159
C  C1  1  0.76680000  0.69740000  0.29450000  1.0 0.3425441662
C  C2  1  0.52700000  0.66250000  0.24830000  1.0 0.3186739886
C  C3  1  0.35000000  0.68440000  0.19230000  1.0 -0.030952003
C  C4  1  0.26150000  0.59520000  0.19970000  1.0 -0.0524990318
C  C5  1  0.10070000  0.62490000  0.15290000  1.0 -0.1216280574
C  C6  1  0.03140000  0.73840000  0.09810000  1.0 0.0737614686
C  C7  1  0.27150000  0.79610000  0.13450000  1.0 0.0477236675
C  C8  1  0.23320000  0.19740000  0.20550000  1.0 0.3425441662
C  C9  1  0.47300000  0.16250000  0.25170000  1.0 0.3186739886
C  C10  1  0.65000000  0.18440000  0.30770000  1.0 -0.030952003
C  C11  1  0.73850000  0.09520000  0.30030000  1.0 -0.0524990318
C  C12  1  0.89930000  0.12490000  0.34710000  1.0 -0.1216280574
C  C13  1  0.96860000  0.23840000  0.40190000  1.0 0.0737614686
C  C14  1  0.72850000  0.29610000  0.36550000  1.0 0.0477236675
C  C15  1  0.23320000  0.30260000  0.70550000  1.0 0.3425441662
C  C16  1  0.47300000  0.33750000  0.75170000  1.0 0.3186739886
C  C17  1  0.65000000  0.31560000  0.80770000  1.0 -0.030952003
C  C18  1  0.73850000  0.40480000  0.80030000  1.0 -0.0524990318
C  C19  1  0.89930000  0.37510000  0.84710000  1.0 -0.1216280574
C  C20  1  0.96860000  0.26160000  0.90190000  1.0 0.0737614686
C  C21  1  0.72850000  0.20390000  0.86550000  1.0 0.0477236675
C  C22  1  0.76680000  0.80260000  0.79450000  1.0 0.3425441662
C  C23  1  0.52700000  0.83750000  0.74830000  1.0 0.3186739886
C  C24  1  0.35000000  0.81560000  0.69230000  1.0 -0.030952003
C  C25  1  0.26150000  0.90480000  0.69970000  1.0 -0.0524990318
C  C26  1  0.10070000  0.87510000  0.65290000  1.0 -0.1216280574
C  C27  1  0.03140000  0.76160000  0.59810000  1.0 0.0737614686
C  C28  1  0.27150000  0.70390000  0.63450000  1.0 0.0477236675
S  S1  1  0.90381000  0.76950000  0.28952000  1.0 -0.3862693405
S  S2  1  0.09619000  0.26950000  0.21048000  1.0 -0.382367382
S  S3  1  0.09619000  0.23050000  0.71048000  1.0 -0.3862693405
S  S4  1  0.90381000  0.73050000  0.78952000  1.0 -0.3862693405
N  N1  1  0.78380000  0.59960000  0.35590000  1.0 -0.2229540294
N  N2  1  0.62990000  0.57720000  0.32570000  1.0 -0.2507489344
N  N3  1  0.11310000  0.82470000  0.08720000  1.0 -0.168353921
N  N4  1  0.21620000  0.09960000  0.14410000  1.0 -0.2229540294
N  N5  1  0.37010000  0.07720000  0.17430000  1.0 -0.2507489344
N  N6  1  0.88690000  0.32470000  0.41280000  1.0 -0.168353921
N  N7  1  0.21620000  0.40040000  0.64410000  1.0 -0.2229540294
N  N8  1  0.37010000  0.42280000  0.67430000  1.0 -0.2507489344
N  N9  1  0.88690000  0.17530000  0.91280000  1.0 -0.168353921
N  N10  1  0.78380000  0.90040000  0.85590000  1.0 -0.2229540294
N  N11  1  0.62990000  0.92280000  0.82570000  1.0 -0.2507489344
N  N12  1  0.11310000  0.67530000  0.58720000  1.0 -0.168353921
O  O1  1  0.60050000  0.74180000  0.22280000  1.0 -0.1758629104
O  O2  1  0.39950000  0.24180000  0.27720000  1.0 -0.1758629104
O  O3  1  0.39950000  0.25820000  0.77720000  1.0 -0.1758629104
O  O4  1  0.60050000  0.75820000  0.72280000  1.0 -0.1758629104
