# DDEC6 charges by PACMAN v1.1 (https://github.com/mtap-research/PACMAN-charge/)
data_XAMDOF_FSR_pacman
_symmetry_space_group_name_H-M   'P 1'
_cell_length_a   18.98200000
_cell_length_b   18.98200000
_cell_length_c   7.91370000
_cell_angle_alpha   90.00000000
_cell_angle_beta   90.00000000
_cell_angle_gamma   120.00000000
_symmetry_Int_Tables_number   1
_chemical_formula_structural   ZnH22(C7N3)4
_chemical_formula_sum   'Zn3 H66 C84 N36'
_cell_volume   2469.41540119
_cell_formula_units_Z   3
loop_
 _symmetry_equiv_pos_site_id
 _symmetry_equiv_pos_as_xyz
  1  'x, y, z'
loop_
 _atom_site_type_symbol
 _atom_site_label
 _atom_site_symmetry_multiplicity
 _atom_site_fract_x
 _atom_site_fract_y
 _atom_site_fract_z
 _atom_site_occupancy
 _atom_site_charge
Zn  Zn1  1  0.33333333  0.66666667  0.65082000  1.0 0.5981595793
Zn  Zn2  1  0.66666667  0.33333333  0.34918000  1.0 0.5981595793
Zn  Zn3  1  0.00000000  0.00000000  0.00000000  1.0 0.5981595793
H  H1  1  0.27090000  0.47190000  0.59550000  1.0 0.1032660033
H  H2  1  0.52810000  0.79900000  0.59550000  1.0 0.1032660033
H  H3  1  0.20100000  0.72910000  0.59550000  1.0 0.1032660033
H  H4  1  0.72910000  0.52810000  0.40450000  1.0 0.1032660033
H  H5  1  0.47190000  0.20100000  0.40450000  1.0 0.1032660033
H  H6  1  0.79900000  0.27090000  0.40450000  1.0 0.1032660033
H  H7  1  0.21030000  0.59930000  0.31130000  1.0 0.1063781914
H  H8  1  0.40070000  0.61100000  0.31130000  1.0 0.1063781914
H  H9  1  0.38900000  0.78970000  0.31130000  1.0 0.1063781914
H  H10  1  0.78970000  0.40070000  0.68870000  1.0 0.1063781914
H  H11  1  0.59930000  0.38900000  0.68870000  1.0 0.1063781914
H  H12  1  0.61100000  0.21030000  0.68870000  1.0 0.1063781914
H  H13  1  0.14510000  0.46350000  0.19190000  1.0 0.1063781914
H  H14  1  0.53650000  0.68160000  0.19190000  1.0 0.1063781914
H  H15  1  0.31840000  0.85490000  0.19190000  1.0 0.1063781914
H  H16  1  0.85490000  0.53650000  0.80810000  1.0 0.1063781914
H  H17  1  0.46350000  0.31840000  0.80810000  1.0 0.1063781914
H  H18  1  0.68160000  0.14510000  0.80810000  1.0 0.1063781914
H  H19  1  0.07300000  0.19860000  0.05320000  1.0 0.1032660033
H  H20  1  0.80140000  0.87440000  0.05320000  1.0 0.1032660033
H  H21  1  0.12560000  0.92700000  0.05320000  1.0 0.1032660033
H  H22  1  0.92700000  0.80140000  0.94680000  1.0 0.1032660033
H  H23  1  0.19860000  0.12560000  0.94680000  1.0 0.1032660033
H  H24  1  0.87440000  0.07300000  0.94680000  1.0 0.1032660033
H  H25  1  0.12160000  0.06230000  0.34030000  1.0 0.1063781914
H  H26  1  0.93770000  0.05930000  0.34030000  1.0 0.1032660033
H  H27  1  0.94070000  0.87840000  0.34030000  1.0 0.1032660033
H  H28  1  0.87840000  0.93770000  0.65970000  1.0 0.1032660033
H  H29  1  0.06230000  0.94070000  0.65970000  1.0 0.1063781914
H  H30  1  0.05930000  0.12160000  0.65970000  1.0 0.1063781914
H  H31  1  0.19200000  0.19800000  0.46250000  1.0 0.1063781914
H  H32  1  0.80200000  0.99400000  0.46250000  1.0 0.1063781914
H  H33  1  0.00600000  0.80800000  0.46250000  1.0 0.1063781914
H  H34  1  0.80800000  0.80200000  0.53750000  1.0 0.1063781914
H  H35  1  0.19800000  0.00600000  0.53750000  1.0 0.1063781914
H  H36  1  0.99400000  0.19200000  0.53750000  1.0 0.1063781914
H  H37  1  0.13720000  0.53110000  0.71090000  1.0 0.1032660033
H  H38  1  0.46890000  0.60610000  0.71090000  1.0 0.1032660033
H  H39  1  0.39390000  0.86280000  0.71090000  1.0 0.1032660033
H  H40  1  0.86280000  0.46890000  0.28910000  1.0 0.1032660033
H  H41  1  0.53110000  0.39390000  0.28910000  1.0 0.1032660033
H  H42  1  0.60610000  0.13720000  0.28910000  1.0 0.1032660033
H  H43  1  0.26520000  0.72440000  0.98640000  1.0 0.1032660033
H  H44  1  0.27560000  0.54080000  0.98640000  1.0 0.1032660033
H  H45  1  0.45920000  0.73480000  0.98640000  1.0 0.1032660033
H  H46  1  0.73480000  0.27560000  0.01360000  1.0 0.1032660033
H  H47  1  0.72440000  0.45920000  0.01360000  1.0 0.1032660033
H  H48  1  0.54080000  0.26520000  0.01360000  1.0 0.1032660033
H  H49  1  0.12530000  0.65960000  0.09070000  1.0 0.1063781914
H  H50  1  0.34040000  0.46570000  0.09070000  1.0 0.1063781914
H  H51  1  0.53430000  0.87470000  0.09070000  1.0 0.1063781914
H  H52  1  0.87470000  0.34040000  0.90930000  1.0 0.1063781914
H  H53  1  0.65960000  0.53430000  0.90930000  1.0 0.1063781914
H  H54  1  0.46570000  0.12530000  0.90930000  1.0 0.1063781914
H  H55  1  0.99760000  0.47560000  0.83150000  1.0 0.1032660033
H  H56  1  0.52440000  0.52200000  0.83150000  1.0 0.1032660033
H  H57  1  0.47800000  0.00240000  0.83150000  1.0 0.1032660033
H  H58  1  0.00240000  0.52440000  0.16850000  1.0 0.1032660033
H  H59  1  0.47560000  0.47800000  0.16850000  1.0 0.1032660033
H  H60  1  0.52200000  0.99760000  0.16850000  1.0 0.1032660033
H  H61  1  0.98430000  0.54740000  0.88660000  1.0 0.1032660033
H  H62  1  0.45260000  0.43690000  0.88660000  1.0 0.1032660033
H  H63  1  0.56310000  0.01570000  0.88660000  1.0 0.1032660033
H  H64  1  0.01570000  0.45260000  0.11340000  1.0 0.1032660033
H  H65  1  0.54740000  0.56310000  0.11340000  1.0 0.1032660033
H  H66  1  0.43690000  0.98430000  0.11340000  1.0 0.1032660033
C  C1  1  0.24730000  0.48730000  0.51110000  1.0 0.0409961098
C  C2  1  0.51270000  0.76000000  0.51110000  1.0 0.0409961098
C  C3  1  0.24000000  0.75270000  0.51110000  1.0 0.0409961098
C  C4  1  0.75270000  0.51270000  0.48890000  1.0 0.0409961098
C  C5  1  0.48730000  0.24000000  0.48890000  1.0 0.0409961098
C  C6  1  0.76000000  0.24730000  0.48890000  1.0 0.0409961098
C  C7  1  0.21440000  0.55590000  0.35420000  1.0 -0.0602953202
C  C8  1  0.44410000  0.65850000  0.35420000  1.0 -0.0602953202
C  C9  1  0.34150000  0.78560000  0.35420000  1.0 -0.0602953202
C  C10  1  0.78560000  0.44410000  0.64580000  1.0 -0.0602953202
C  C11  1  0.55590000  0.34150000  0.64580000  1.0 -0.0602953202
C  C12  1  0.65850000  0.21440000  0.64580000  1.0 -0.0602953202
C  C13  1  0.17720000  0.48100000  0.28860000  1.0 -0.1579032725
C  C14  1  0.51900000  0.69620000  0.28860000  1.0 -0.1579032725
C  C15  1  0.30380000  0.82280000  0.28860000  1.0 -0.1579032725
C  C16  1  0.82280000  0.51900000  0.71140000  1.0 -0.1579032725
C  C17  1  0.48100000  0.30380000  0.71140000  1.0 -0.1579032725
C  C18  1  0.69620000  0.17720000  0.71140000  1.0 -0.1579032725
C  C19  1  0.09430000  0.18100000  0.13830000  1.0 0.050454477
C  C20  1  0.81900000  0.91330000  0.13830000  1.0 0.050454477
C  C21  1  0.08670000  0.90570000  0.13830000  1.0 0.050454477
C  C22  1  0.90570000  0.81900000  0.86170000  1.0 0.050454477
C  C23  1  0.18100000  0.08670000  0.86170000  1.0 0.050454477
C  C24  1  0.91330000  0.09430000  0.86170000  1.0 0.050454477
C  C25  1  0.12050000  0.10730000  0.29710000  1.0 -0.046436161
C  C26  1  0.89270000  0.01320000  0.29710000  1.0 -0.046436161
C  C27  1  0.98680000  0.87950000  0.29710000  1.0 -0.046436161
C  C28  1  0.87950000  0.89270000  0.70290000  1.0 -0.046436161
C  C29  1  0.10730000  0.98680000  0.70290000  1.0 -0.046436161
C  C30  1  0.01320000  0.12050000  0.70290000  1.0 -0.046436161
C  C31  1  0.16090000  0.18210000  0.36440000  1.0 -0.1579032725
C  C32  1  0.81790000  0.97880000  0.36440000  1.0 -0.1579032725
C  C33  1  0.02120000  0.83910000  0.36440000  1.0 -0.1579032725
C  C34  1  0.83910000  0.81790000  0.63560000  1.0 -0.1579032725
C  C35  1  0.18210000  0.02120000  0.63560000  1.0 -0.1579032725
C  C36  1  0.97880000  0.16090000  0.63560000  1.0 -0.1579032725
C  C37  1  0.15270000  0.34510000  0.39730000  1.0 -0.0294683212
C  C38  1  0.65490000  0.80760000  0.39730000  1.0 -0.0294683212
C  C39  1  0.19240000  0.84730000  0.39730000  1.0 -0.0294683212
C  C40  1  0.84730000  0.65490000  0.60270000  1.0 -0.0294683212
C  C41  1  0.34510000  0.19240000  0.60270000  1.0 -0.0294683212
C  C42  1  0.80760000  0.15270000  0.60270000  1.0 -0.0294683212
C  C43  1  0.19070000  0.32140000  0.25580000  1.0 -0.0220709843
C  C44  1  0.67860000  0.86930000  0.25580000  1.0 -0.0220709843
C  C45  1  0.13070000  0.80930000  0.25580000  1.0 -0.0220709843
C  C46  1  0.80930000  0.67860000  0.74420000  1.0 -0.0220709843
C  C47  1  0.32140000  0.13070000  0.74420000  1.0 -0.0220709843
C  C48  1  0.86930000  0.19070000  0.74420000  1.0 -0.0220709843
C  C49  1  0.15190000  0.57160000  0.79170000  1.0 0.050454477
C  C50  1  0.42840000  0.58030000  0.79170000  1.0 0.050454477
C  C51  1  0.41970000  0.84810000  0.79170000  1.0 0.050454477
C  C52  1  0.84810000  0.42840000  0.20830000  1.0 0.0551231085
C  C53  1  0.57160000  0.41970000  0.20830000  1.0 0.0551231085
C  C54  1  0.58030000  0.15190000  0.20830000  1.0 0.0551231085
C  C55  1  0.22160000  0.67720000  0.94320000  1.0 -0.0602953202
C  C56  1  0.32280000  0.54440000  0.94320000  1.0 -0.0602953202
C  C57  1  0.45560000  0.77840000  0.94320000  1.0 -0.0602953202
C  C58  1  0.77840000  0.32280000  0.05680000  1.0 -0.0602953202
C  C59  1  0.67720000  0.45560000  0.05680000  1.0 -0.0602953202
C  C60  1  0.54440000  0.22160000  0.05680000  1.0 -0.0602953202
C  C61  1  0.14420000  0.64170000  0.00160000  1.0 -0.1549119623
C  C62  1  0.35830000  0.50250000  0.00160000  1.0 -0.1549119623
C  C63  1  0.49750000  0.85580000  0.00160000  1.0 -0.1549119623
C  C64  1  0.85580000  0.35830000  0.99840000  1.0 -0.1579032725
C  C65  1  0.64170000  0.49750000  0.99840000  1.0 -0.1579032725
C  C66  1  0.50250000  0.14420000  0.99840000  1.0 -0.1579032725
C  C67  1  0.01290000  0.51850000  0.91420000  1.0 -0.1579032725
C  C68  1  0.48150000  0.49440000  0.91420000  1.0 -0.1579032725
C  C69  1  0.50560000  0.98710000  0.91420000  1.0 -0.1579032725
C  C70  1  0.98710000  0.48150000  0.08580000  1.0 -0.1579032725
C  C71  1  0.51850000  0.50560000  0.08580000  1.0 -0.1579032725
C  C72  1  0.49440000  0.01290000  0.08580000  1.0 -0.1579032725
C  C73  1  0.21520000  0.36810000  0.30630000  1.0 -0.0602953202
C  C74  1  0.63190000  0.84710000  0.30630000  1.0 -0.0602953202
C  C75  1  0.15290000  0.78480000  0.30630000  1.0 -0.0602953202
C  C76  1  0.78480000  0.63190000  0.69370000  1.0 -0.0602953202
C  C77  1  0.36810000  0.15290000  0.69370000  1.0 -0.0602953202
C  C78  1  0.84710000  0.21520000  0.69370000  1.0 -0.0602953202
C  C79  1  0.13230000  0.30030000  0.35710000  1.0 -0.0602953202
C  C80  1  0.69970000  0.83200000  0.35710000  1.0 -0.0602953202
C  C81  1  0.16800000  0.86770000  0.35710000  1.0 -0.0602953202
C  C82  1  0.86770000  0.69970000  0.64290000  1.0 -0.0602953202
C  C83  1  0.30030000  0.16800000  0.64290000  1.0 -0.0602953202
C  C84  1  0.83200000  0.13230000  0.64290000  1.0 -0.0602953202
N  N1  1  0.25973000  0.56021000  0.49380000  1.0 -0.2652751328
N  N2  1  0.43979000  0.69952000  0.49380000  1.0 -0.2652751328
N  N3  1  0.30048000  0.74027000  0.49380000  1.0 -0.2652751328
N  N4  1  0.74027000  0.43979000  0.50620000  1.0 -0.2632664463
N  N5  1  0.56021000  0.30048000  0.50620000  1.0 -0.2632664463
N  N6  1  0.69952000  0.25973000  0.50620000  1.0 -0.2632664463
N  N7  1  0.19590000  0.43570000  0.39230000  1.0 0.0662623002
N  N8  1  0.56430000  0.76020000  0.39230000  1.0 0.0662623002
N  N9  1  0.23980000  0.80410000  0.39230000  1.0 0.0662623002
N  N10  1  0.80410000  0.56430000  0.60770000  1.0 0.0662623002
N  N11  1  0.43570000  0.23980000  0.60770000  1.0 0.0662623002
N  N12  1  0.76020000  0.19590000  0.60770000  1.0 0.0662623002
N  N13  1  0.07791000  0.10571000  0.15800000  1.0 -0.2632664463
N  N14  1  0.89429000  0.97220000  0.15800000  1.0 -0.2632664463
N  N15  1  0.02780000  0.92209000  0.15800000  1.0 -0.2632664463
N  N16  1  0.92209000  0.89429000  0.84200000  1.0 -0.2632664463
N  N17  1  0.10571000  0.02780000  0.84200000  1.0 -0.2632664463
N  N18  1  0.97220000  0.07791000  0.84200000  1.0 -0.2632664463
N  N19  1  0.14650000  0.22940000  0.25860000  1.0 0.079278318
N  N20  1  0.77060000  0.91710000  0.25860000  1.0 0.079278318
N  N21  1  0.08290000  0.85350000  0.25860000  1.0 0.079278318
N  N22  1  0.85350000  0.77060000  0.74140000  1.0 0.079278318
N  N23  1  0.22940000  0.08290000  0.74140000  1.0 0.079278318
N  N24  1  0.91710000  0.14650000  0.74140000  1.0 0.079278318
N  N25  1  0.22591000  0.63293000  0.81060000  1.0 -0.2758696199
N  N26  1  0.36707000  0.59298000  0.81060000  1.0 -0.2758696199
N  N27  1  0.40702000  0.77409000  0.81060000  1.0 -0.2758696199
N  N28  1  0.77409000  0.36707000  0.18940000  1.0 -0.2758696199
N  N29  1  0.63293000  0.40702000  0.18940000  1.0 -0.2758696199
N  N30  1  0.59298000  0.22591000  0.18940000  1.0 -0.2758696199
N  N31  1  0.09954000  0.57420000  0.90350000  1.0 0.0338903676
N  N32  1  0.42580000  0.52534000  0.90350000  1.0 0.0338903676
N  N33  1  0.47466000  0.90046000  0.90350000  1.0 0.0338903676
N  N34  1  0.90046000  0.42580000  0.09650000  1.0 0.0338903676
N  N35  1  0.57420000  0.47466000  0.09650000  1.0 0.0338903676
N  N36  1  0.52534000  0.09954000  0.09650000  1.0 0.0338903676
