# DDEC6 charges by PACMAN v1.1 (https://github.com/mtap-research/PACMAN-charge/)
data_XAMGUQ_FSR_pacman
_symmetry_space_group_name_H-M   'P 1'
_cell_length_a   25.20090000
_cell_length_b   25.20090000
_cell_length_c   20.49700000
_cell_angle_alpha   87.36060000
_cell_angle_beta   92.63940000
_cell_angle_gamma   31.44550000
_symmetry_Int_Tables_number   1
_chemical_formula_structural   Co3H30(C22O9)2
_chemical_formula_sum   'Co12 H120 C176 O72'
_cell_volume   6692.20818502
_cell_formula_units_Z   4
loop_
 _symmetry_equiv_pos_site_id
 _symmetry_equiv_pos_as_xyz
  1  'x, y, z'
loop_
 _atom_site_type_symbol
 _atom_site_label
 _atom_site_symmetry_multiplicity
 _atom_site_fract_x
 _atom_site_fract_y
 _atom_site_fract_z
 _atom_site_occupancy
 _atom_site_charge
Co  Co1  1  0.40542000  0.40542000  0.75000000  1.0 1.0866368113
Co  Co2  1  0.59458000  0.59458000  0.25000000  1.0 1.0866368113
Co  Co3  1  0.68326000  0.68326000  0.75000000  1.0 1.0866368113
Co  Co4  1  0.31674000  0.31674000  0.25000000  1.0 1.0866368113
Co  Co5  1  0.51123000  0.86803000  0.60701000  1.0 1.008836746
Co  Co6  1  0.86803000  0.51123000  0.89299000  1.0 1.008836746
Co  Co7  1  0.48877000  0.13197000  0.39299000  1.0 1.008836746
Co  Co8  1  0.13197000  0.48877000  0.10701000  1.0 1.008836746
Co  Co9  1  0.60546000  0.17518000  0.68070000  1.0 1.1449869273
Co  Co10  1  0.17518000  0.60546000  0.81930000  1.0 1.1449869273
Co  Co11  1  0.39454000  0.82482000  0.31930000  1.0 1.1456266044
Co  Co12  1  0.82482000  0.39454000  0.18070000  1.0 1.1456266044
H  H1  1  0.24750000  0.43650000  0.68760000  1.0 0.1296187224
H  H2  1  0.43650000  0.24750000  0.81240000  1.0 0.1296187224
H  H3  1  0.75250000  0.56350000  0.31240000  1.0 0.1296187224
H  H4  1  0.56350000  0.75250000  0.18760000  1.0 0.1296187224
H  H5  1  0.92440000  0.54460000  0.66740000  1.0 0.1296187224
H  H6  1  0.54460000  0.92440000  0.83260000  1.0 0.1296187224
H  H7  1  0.07560000  0.45540000  0.33260000  1.0 0.1296187224
H  H8  1  0.45540000  0.07560000  0.16740000  1.0 0.1296187224
H  H9  1  0.06260000  0.46000000  0.62290000  1.0 0.1390474437
H  H10  1  0.46000000  0.06260000  0.87710000  1.0 0.1390474437
H  H11  1  0.93740000  0.54000000  0.37710000  1.0 0.1390474437
H  H12  1  0.54000000  0.93740000  0.12290000  1.0 0.1390474437
H  H13  1  0.09330000  0.53690000  0.63800000  1.0 0.1390474437
H  H14  1  0.53690000  0.09330000  0.86200000  1.0 0.1390474437
H  H15  1  0.90670000  0.46310000  0.36200000  1.0 0.1390474437
H  H16  1  0.46310000  0.90670000  0.13800000  1.0 0.1390474437
H  H17  1  0.72380000  0.49560000  0.68210000  1.0 0.1296187224
H  H18  1  0.49560000  0.72380000  0.81790000  1.0 0.1296187224
H  H19  1  0.27620000  0.50440000  0.31790000  1.0 0.1296187224
H  H20  1  0.50440000  0.27620000  0.18210000  1.0 0.1296187224
H  H21  1  0.36980000  0.29660000  0.52850000  1.0 0.1390474437
H  H22  1  0.29660000  0.36980000  0.97150000  1.0 0.1390474437
H  H23  1  0.63020000  0.70340000  0.47150000  1.0 0.1390474437
H  H24  1  0.70340000  0.63020000  0.02850000  1.0 0.1390474437
H  H25  1  0.72700000  0.78660000  0.52320000  1.0 0.1390474437
H  H26  1  0.78660000  0.72700000  0.97680000  1.0 0.1390474437
H  H27  1  0.27300000  0.21340000  0.47680000  1.0 0.1390474437
H  H28  1  0.21340000  0.27300000  0.02320000  1.0 0.1390474437
H  H29  1  0.21910000  0.39210000  0.48170000  1.0 0.1484051072
H  H30  1  0.39210000  0.21910000  0.01830000  1.0 0.1484051072
H  H31  1  0.78090000  0.60790000  0.51830000  1.0 0.1484051072
H  H32  1  0.60790000  0.78090000  0.98170000  1.0 0.1484051072
H  H33  1  0.82290000  0.89810000  0.97300000  1.0 0.1484051072
H  H34  1  0.89810000  0.82290000  0.52700000  1.0 0.1484051072
H  H35  1  0.17710000  0.10190000  0.02700000  1.0 0.1484051072
H  H36  1  0.10190000  0.17710000  0.47300000  1.0 0.1484051072
H  H37  1  0.54990000  0.24550000  0.93370000  1.0 0.1296187224
H  H38  1  0.24550000  0.54990000  0.56630000  1.0 0.1296187224
H  H39  1  0.45010000  0.75450000  0.06630000  1.0 0.1296187224
H  H40  1  0.75450000  0.45010000  0.43370000  1.0 0.1296187224
H  H41  1  0.50040000  0.13720000  0.16520000  1.0 0.1171398882
H  H42  1  0.13720000  0.50040000  0.33480000  1.0 0.1171398882
H  H43  1  0.49960000  0.86280000  0.83480000  1.0 0.1171398882
H  H44  1  0.86280000  0.49960000  0.66520000  1.0 0.1171398882
H  H45  1  0.52080000  0.53920000  0.61640000  1.0 0.1296187224
H  H46  1  0.53920000  0.52080000  0.88360000  1.0 0.1296187224
H  H47  1  0.47920000  0.46080000  0.38360000  1.0 0.1296187224
H  H48  1  0.46080000  0.47920000  0.11640000  1.0 0.1296187224
H  H49  1  0.61330000  0.16010000  0.03980000  1.0 0.1296187224
H  H50  1  0.16010000  0.61330000  0.46020000  1.0 0.1296187224
H  H51  1  0.38670000  0.83990000  0.96020000  1.0 0.1296187224
H  H52  1  0.83990000  0.38670000  0.53980000  1.0 0.1296187224
H  H53  1  0.69960000  0.30820000  0.51390000  1.0 0.1390474437
H  H54  1  0.30820000  0.69960000  0.98610000  1.0 0.1390474437
H  H55  1  0.30040000  0.69180000  0.48610000  1.0 0.1390474437
H  H56  1  0.69180000  0.30040000  0.01390000  1.0 0.1390474437
H  H57  1  0.54400000  0.69520000  0.51150000  1.0 0.1390474437
H  H58  1  0.69520000  0.54400000  0.98850000  1.0 0.1390474437
H  H59  1  0.45600000  0.30480000  0.48850000  1.0 0.1390474437
H  H60  1  0.30480000  0.45600000  0.01150000  1.0 0.1390474437
H  H61  1  0.72550000  0.40950000  0.64340000  1.0 0.1390474437
H  H62  1  0.40950000  0.72550000  0.85660000  1.0 0.1390474437
H  H63  1  0.27450000  0.59050000  0.35660000  1.0 0.1390474437
H  H64  1  0.59050000  0.27450000  0.14340000  1.0 0.1390474437
H  H65  1  0.59700000  0.06800000  0.07700000  1.0 0.1296187224
H  H66  1  0.06800000  0.59700000  0.42300000  1.0 0.1296187224
H  H67  1  0.40300000  0.93200000  0.92300000  1.0 0.1296187224
H  H68  1  0.93200000  0.40300000  0.57700000  1.0 0.1296187224
H  H69  1  0.48810000  0.48690000  0.67110000  1.0 0.1296187224
H  H70  1  0.48690000  0.48810000  0.82890000  1.0 0.1296187224
H  H71  1  0.51190000  0.51310000  0.32890000  1.0 0.1296187224
H  H72  1  0.51310000  0.51190000  0.17110000  1.0 0.1296187224
H  H73  1  0.66750000  0.25430000  0.57040000  1.0 0.1296187224
H  H74  1  0.25430000  0.66750000  0.92960000  1.0 0.1296187224
H  H75  1  0.33250000  0.74570000  0.42960000  1.0 0.1296187224
H  H76  1  0.74570000  0.33250000  0.07040000  1.0 0.1296187224
H  H77  1  0.55120000  0.60560000  0.47600000  1.0 0.1484051072
H  H78  1  0.60560000  0.55120000  0.02400000  1.0 0.1484051072
H  H79  1  0.44880000  0.39440000  0.52400000  1.0 0.1484051072
H  H80  1  0.39440000  0.44880000  0.97600000  1.0 0.1484051072
H  H81  1  0.73470000  0.00330000  0.28520000  1.0 0.1296187224
H  H82  1  0.00330000  0.73470000  0.21480000  1.0 0.1296187224
H  H83  1  0.26530000  0.99670000  0.71480000  1.0 0.1296187224
H  H84  1  0.99670000  0.26530000  0.78520000  1.0 0.1296187224
H  H85  1  0.86760000  0.70680000  0.48530000  1.0 0.159254819
H  H86  1  0.70680000  0.86760000  0.01470000  1.0 0.159254819
H  H87  1  0.13240000  0.29320000  0.51470000  1.0 0.159254819
H  H88  1  0.29320000  0.13240000  0.98530000  1.0 0.159254819
H  H89  1  0.76420000  0.98060000  0.86840000  1.0 0.1296187224
H  H90  1  0.98060000  0.76420000  0.63160000  1.0 0.1296187224
H  H91  1  0.23580000  0.01940000  0.13160000  1.0 0.1296187224
H  H92  1  0.01940000  0.23580000  0.36840000  1.0 0.1296187224
H  H93  1  0.81770000  0.95630000  0.19600000  1.0 0.1390474437
H  H94  1  0.95630000  0.81770000  0.30400000  1.0 0.1390474437
H  H95  1  0.18230000  0.04370000  0.80400000  1.0 0.1390474437
H  H96  1  0.04370000  0.18230000  0.69600000  1.0 0.1390474437
H  H97  1  0.42570000  0.99010000  0.42180000  1.0 0.1171398882
H  H98  1  0.99010000  0.42570000  0.07820000  1.0 0.1171398882
H  H99  1  0.57430000  0.00990000  0.57820000  1.0 0.1171398882
H  H100  1  0.00990000  0.57430000  0.92180000  1.0 0.1171398882
H  H101  1  0.45530000  0.99370000  0.48830000  1.0 0.1171398882
H  H102  1  0.99370000  0.45530000  0.01170000  1.0 0.1171398882
H  H103  1  0.54470000  0.00630000  0.51170000  1.0 0.1171398882
H  H104  1  0.00630000  0.54470000  0.98830000  1.0 0.1171398882
H  H105  1  0.53270000  0.88730000  0.46660000  1.0 0.1087293437
H  H106  1  0.88730000  0.53270000  0.03340000  1.0 0.1087293437
H  H107  1  0.46730000  0.11270000  0.53340000  1.0 0.1087293437
H  H108  1  0.11270000  0.46730000  0.96660000  1.0 0.1087293437
H  H109  1  0.39430000  0.11930000  0.65630000  1.0 0.1025891582
H  H110  1  0.11930000  0.39430000  0.84370000  1.0 0.1025891582
H  H111  1  0.60570000  0.88070000  0.34370000  1.0 0.1025891582
H  H112  1  0.88070000  0.60570000  0.15630000  1.0 0.1025891582
H  H113  1  0.45290000  0.03350000  0.71500000  1.0 0.1087293437
H  H114  1  0.03350000  0.45290000  0.78500000  1.0 0.1087293437
H  H115  1  0.54710000  0.96650000  0.28500000  1.0 0.1087293437
H  H116  1  0.96650000  0.54710000  0.21500000  1.0 0.1087293437
H  H117  1  0.51430000  0.01010000  0.66460000  1.0 0.1087293437
H  H118  1  0.01010000  0.51430000  0.83540000  1.0 0.1087293437
H  H119  1  0.48570000  0.98990000  0.33540000  1.0 0.1087293437
H  H120  1  0.98990000  0.48570000  0.16460000  1.0 0.1087293437
C  C1  1  0.32940000  0.35260000  0.61480000  1.0 -0.0427332974
C  C2  1  0.35260000  0.32940000  0.88520000  1.0 -0.0427332974
C  C3  1  0.67060000  0.64740000  0.38520000  1.0 -0.0427332974
C  C4  1  0.64740000  0.67060000  0.11480000  1.0 -0.0427332974
C  C5  1  0.64820000  0.12360000  0.88810000  1.0 -0.0762761535
C  C6  1  0.12360000  0.64820000  0.61190000  1.0 -0.0762761535
C  C7  1  0.35180000  0.87640000  0.11190000  1.0 -0.0762761535
C  C8  1  0.87640000  0.35180000  0.38810000  1.0 -0.0762761535
C  C9  1  0.56920000  0.36860000  0.62360000  1.0 -0.0689724816
C  C10  1  0.36860000  0.56920000  0.87640000  1.0 -0.0689724816
C  C11  1  0.43080000  0.63140000  0.37640000  1.0 -0.0689724816
C  C12  1  0.63140000  0.43080000  0.12360000  1.0 -0.0689724816
C  C13  1  0.81310000  0.67210000  0.60190000  1.0 -0.0427332974
C  C14  1  0.67210000  0.81310000  0.89810000  1.0 -0.0427332974
C  C15  1  0.18690000  0.32790000  0.39810000  1.0 -0.0427332974
C  C16  1  0.32790000  0.18690000  0.10190000  1.0 -0.0427332974
C  C17  1  0.62460000  0.66600000  0.62850000  1.0 0.5874442456
C  C18  1  0.66600000  0.62460000  0.87150000  1.0 0.5874442456
C  C19  1  0.37540000  0.33400000  0.37150000  1.0 0.5874442456
C  C20  1  0.33400000  0.37540000  0.12850000  1.0 0.5874442456
C  C21  1  0.24220000  0.42740000  0.64580000  1.0 -0.0689724816
C  C22  1  0.42740000  0.24220000  0.85420000  1.0 -0.0689724816
C  C23  1  0.75780000  0.57260000  0.35420000  1.0 -0.0689724816
C  C24  1  0.57260000  0.75780000  0.14580000  1.0 -0.0689724816
C  C25  1  0.63080000  0.60600000  0.60110000  1.0 -0.0235557316
C  C26  1  0.60600000  0.63080000  0.89890000  1.0 -0.0235557316
C  C27  1  0.36920000  0.39400000  0.39890000  1.0 -0.0235557316
C  C28  1  0.39400000  0.36920000  0.10110000  1.0 -0.0235557316
C  C29  1  0.14400000  0.47120000  0.55450000  1.0 0.2414032244
C  C30  1  0.47120000  0.14400000  0.94550000  1.0 0.2414032244
C  C31  1  0.85600000  0.52880000  0.44550000  1.0 0.2414032244
C  C32  1  0.52880000  0.85600000  0.05450000  1.0 0.2414032244
C  C33  1  0.91180000  0.57740000  0.62940000  1.0 -0.0689724816
C  C34  1  0.57740000  0.91180000  0.87060000  1.0 -0.0689724816
C  C35  1  0.08820000  0.42260000  0.37060000  1.0 -0.0689724816
C  C36  1  0.42260000  0.08820000  0.12940000  1.0 -0.0689724816
C  C37  1  0.99550000  0.52650000  0.60370000  1.0 -0.207057177
C  C38  1  0.52650000  0.99550000  0.89630000  1.0 -0.207057177
C  C39  1  0.00450000  0.47350000  0.39630000  1.0 -0.207057177
C  C40  1  0.47350000  0.00450000  0.10370000  1.0 -0.207057177
C  C41  1  0.61780000  0.42320000  0.56380000  1.0 0.2414032244
C  C42  1  0.42320000  0.61780000  0.93620000  1.0 0.2414032244
C  C43  1  0.38220000  0.57680000  0.43620000  1.0 0.2414032244
C  C44  1  0.57680000  0.38220000  0.06380000  1.0 0.2414032244
C  C45  1  0.15070000  0.48670000  0.61690000  1.0 -0.1891357454
C  C46  1  0.48670000  0.15070000  0.88310000  1.0 -0.1891357454
C  C47  1  0.84930000  0.51330000  0.38310000  1.0 -0.1891357454
C  C48  1  0.51330000  0.84930000  0.11690000  1.0 -0.1891357454
C  C49  1  0.68760000  0.51880000  0.64070000  1.0 -0.0887727292
C  C50  1  0.51880000  0.68760000  0.85930000  1.0 -0.0887727292
C  C51  1  0.31240000  0.48120000  0.35930000  1.0 -0.0887727292
C  C52  1  0.48120000  0.31240000  0.14070000  1.0 -0.0887727292
C  C53  1  0.31440000  0.34420000  0.55150000  1.0 -0.0615782255
C  C54  1  0.34420000  0.31440000  0.94850000  1.0 -0.0615782255
C  C55  1  0.68560000  0.65580000  0.44850000  1.0 -0.0615782255
C  C56  1  0.65580000  0.68560000  0.05150000  1.0 -0.0615782255
C  C57  1  0.63840000  0.50080000  0.55640000  1.0 0.214518409
C  C58  1  0.50080000  0.63840000  0.94360000  1.0 0.214518409
C  C59  1  0.36160000  0.49920000  0.44360000  1.0 0.214518409
C  C60  1  0.49920000  0.36160000  0.05640000  1.0 0.214518409
C  C61  1  0.54280000  0.34140000  0.65770000  1.0 0.5809558231
C  C62  1  0.34140000  0.54280000  0.84230000  1.0 0.5809558231
C  C63  1  0.45720000  0.65860000  0.34230000  1.0 0.5809558231
C  C64  1  0.65860000  0.45720000  0.15770000  1.0 0.5809558231
C  C65  1  0.72400000  0.72460000  0.62970000  1.0 0.5809558231
C  C66  1  0.72460000  0.72400000  0.87030000  1.0 0.5809558231
C  C67  1  0.27600000  0.27540000  0.37030000  1.0 0.5809558231
C  C68  1  0.27540000  0.27600000  0.12970000  1.0 0.5809558231
C  C69  1  0.61310000  0.07290000  0.23500000  1.0 -0.0615782255
C  C70  1  0.07290000  0.61310000  0.26500000  1.0 -0.0615782255
C  C71  1  0.38690000  0.92710000  0.76500000  1.0 -0.0615782255
C  C72  1  0.92710000  0.38690000  0.73500000  1.0 -0.0615782255
C  C73  1  0.79390000  0.72250000  0.54470000  1.0 -0.0615782255
C  C74  1  0.72250000  0.79390000  0.95530000  1.0 -0.0615782255
C  C75  1  0.20610000  0.27750000  0.45530000  1.0 -0.0615782255
C  C76  1  0.27750000  0.20610000  0.04470000  1.0 -0.0615782255
C  C77  1  0.22520000  0.40100000  0.52330000  1.0 -0.176222563
C  C78  1  0.40100000  0.22520000  0.97670000  1.0 -0.176222563
C  C79  1  0.77480000  0.59900000  0.47670000  1.0 -0.176222563
C  C80  1  0.59900000  0.77480000  0.02330000  1.0 -0.176222563
C  C81  1  0.76850000  0.96890000  0.96570000  1.0 -0.207057177
C  C82  1  0.96890000  0.76850000  0.53430000  1.0 -0.207057177
C  C83  1  0.23150000  0.03110000  0.03430000  1.0 -0.207057177
C  C84  1  0.03110000  0.23150000  0.46570000  1.0 -0.207057177
C  C85  1  0.97660000  0.57680000  0.54950000  1.0 0.2324988952
C  C86  1  0.57680000  0.97660000  0.95050000  1.0 0.2324988952
C  C87  1  0.02340000  0.42320000  0.45050000  1.0 0.2324988952
C  C88  1  0.42320000  0.02340000  0.04950000  1.0 0.2324988952
C  C89  1  0.60620000  0.17420000  0.94080000  1.0 -0.0615782255
C  C90  1  0.17420000  0.60620000  0.55920000  1.0 -0.0615782255
C  C91  1  0.39380000  0.82580000  0.05920000  1.0 -0.0615782255
C  C92  1  0.82580000  0.39380000  0.44080000  1.0 -0.0615782255
C  C93  1  0.56500000  0.09780000  0.17170000  1.0 -0.0513833148
C  C94  1  0.09780000  0.56500000  0.32830000  1.0 -0.0513833148
C  C95  1  0.43500000  0.90220000  0.82830000  1.0 -0.0513833148
C  C96  1  0.90220000  0.43500000  0.67170000  1.0 -0.0513833148
C  C97  1  0.55120000  0.48160000  0.60750000  1.0 -0.2204929611
C  C98  1  0.48160000  0.55120000  0.89250000  1.0 -0.2204929611
C  C99  1  0.44880000  0.51840000  0.39250000  1.0 -0.2204929611
C  C100  1  0.51840000  0.44880000  0.10750000  1.0 -0.2204929611
C  C101  1  0.64530000  0.12250000  0.00510000  1.0 -0.2204929611
C  C102  1  0.12250000  0.64530000  0.49490000  1.0 -0.2204929611
C  C103  1  0.35470000  0.87750000  0.99490000  1.0 -0.2204929611
C  C104  1  0.87750000  0.35470000  0.50510000  1.0 -0.2204929611
C  C105  1  0.71450000  0.00610000  0.12940000  1.0 0.2414032244
C  C106  1  0.00610000  0.71450000  0.37060000  1.0 0.2414032244
C  C107  1  0.28550000  0.99390000  0.87060000  1.0 0.2414032244
C  C108  1  0.99390000  0.28550000  0.62940000  1.0 0.2414032244
C  C109  1  0.65810000  0.34310000  0.54660000  1.0 -0.207057177
C  C110  1  0.34310000  0.65810000  0.95340000  1.0 -0.207057177
C  C111  1  0.34190000  0.65690000  0.45340000  1.0 -0.207057177
C  C112  1  0.65690000  0.34190000  0.04660000  1.0 -0.207057177
C  C113  1  0.58070000  0.63750000  0.53870000  1.0 -0.0689724816
C  C114  1  0.63750000  0.58070000  0.96130000  1.0 -0.0689724816
C  C115  1  0.41930000  0.36250000  0.46130000  1.0 -0.0689724816
C  C116  1  0.36250000  0.41930000  0.03870000  1.0 -0.0689724816
C  C117  1  0.68920000  0.46760000  0.61730000  1.0 -0.1891357454
C  C118  1  0.46760000  0.68920000  0.88270000  1.0 -0.1891357454
C  C119  1  0.31080000  0.53240000  0.38270000  1.0 -0.1891357454
C  C120  1  0.53240000  0.31080000  0.11730000  1.0 -0.1891357454
C  C121  1  0.62230000  0.05830000  0.11880000  1.0 -0.2204929611
C  C122  1  0.05830000  0.62230000  0.38120000  1.0 -0.2204929611
C  C123  1  0.37770000  0.94170000  0.88120000  1.0 -0.2204929611
C  C124  1  0.94170000  0.37770000  0.61880000  1.0 -0.2204929611
C  C125  1  0.72630000  0.02130000  0.01810000  1.0 0.2673973141
C  C126  1  0.02130000  0.72630000  0.48190000  1.0 0.2673973141
C  C127  1  0.27370000  0.97870000  0.98190000  1.0 0.2673973141
C  C128  1  0.97870000  0.27370000  0.51810000  1.0 0.2673973141
C  C129  1  0.53010000  0.45090000  0.63880000  1.0 -0.0615782255
C  C130  1  0.45090000  0.53010000  0.86120000  1.0 -0.0615782255
C  C131  1  0.46990000  0.54910000  0.36120000  1.0 -0.0615782255
C  C132  1  0.54910000  0.46990000  0.13880000  1.0 -0.0615782255
C  C133  1  0.63610000  0.31250000  0.57940000  1.0 -0.0689724816
C  C134  1  0.31250000  0.63610000  0.92060000  1.0 -0.0689724816
C  C135  1  0.36390000  0.68750000  0.42060000  1.0 -0.0689724816
C  C136  1  0.68750000  0.36390000  0.07940000  1.0 -0.0689724816
C  C137  1  0.58530000  0.58430000  0.51780000  1.0 -0.1685964989
C  C138  1  0.58430000  0.58530000  0.98220000  1.0 -0.1685964989
C  C139  1  0.41470000  0.41570000  0.48220000  1.0 -0.1685964989
C  C140  1  0.41570000  0.41470000  0.01780000  1.0 -0.1685964989
C  C141  1  0.70500000  0.01960000  0.24280000  1.0 -0.0615782255
C  C142  1  0.01960000  0.70500000  0.25720000  1.0 -0.0615782255
C  C143  1  0.29500000  0.98040000  0.75720000  1.0 -0.0615782255
C  C144  1  0.98040000  0.29500000  0.74280000  1.0 -0.0615782255
C  C145  1  0.87870000  0.67290000  0.52120000  1.0 -0.2007100514
C  C146  1  0.67290000  0.87870000  0.97880000  1.0 -0.2007100514
C  C147  1  0.12130000  0.32710000  0.47880000  1.0 -0.2007100514
C  C148  1  0.32710000  0.12130000  0.02120000  1.0 -0.2007100514
C  C149  1  0.73150000  0.01890000  0.90270000  1.0 -0.0513833148
C  C150  1  0.01890000  0.73150000  0.59730000  1.0 -0.0513833148
C  C151  1  0.26850000  0.98110000  0.09730000  1.0 -0.0513833148
C  C152  1  0.98110000  0.26850000  0.40270000  1.0 -0.0513833148
C  C153  1  0.75740000  0.98780000  0.19030000  1.0 -0.2007100514
C  C154  1  0.98780000  0.75740000  0.30970000  1.0 -0.2007100514
C  C155  1  0.24260000  0.01220000  0.80970000  1.0 -0.2007100514
C  C156  1  0.01220000  0.24260000  0.69030000  1.0 -0.207057177
C  C157  1  0.60540000  0.17980000  0.82270000  1.0 0.5809558231
C  C158  1  0.17980000  0.60540000  0.67730000  1.0 0.5809558231
C  C159  1  0.39460000  0.82020000  0.17730000  1.0 0.5809558231
C  C160  1  0.82020000  0.39460000  0.32270000  1.0 0.5809558231
C  C161  1  0.42490000  0.29310000  0.64760000  1.0 0.5506984888
C  C162  1  0.29310000  0.42490000  0.85240000  1.0 0.5506984888
C  C163  1  0.57510000  0.70690000  0.35240000  1.0 0.5506984888
C  C164  1  0.70690000  0.57510000  0.14760000  1.0 0.5506984888
C  C165  1  0.56440000  0.09960000  0.29140000  1.0 0.5506984888
C  C166  1  0.09960000  0.56440000  0.20860000  1.0 0.5506984888
C  C167  1  0.43560000  0.90040000  0.70860000  1.0 0.5506984888
C  C168  1  0.90040000  0.43560000  0.79140000  1.0 0.5506984888
C  C169  1  0.46130000  0.95610000  0.46660000  1.0 -0.2677688824
C  C170  1  0.95610000  0.46130000  0.03340000  1.0 -0.2677688824
C  C171  1  0.53870000  0.04390000  0.53340000  1.0 -0.2677688824
C  C172  1  0.04390000  0.53870000  0.96660000  1.0 -0.2677688824
C  C173  1  0.45080000  0.04680000  0.66960000  1.0 -0.263156593
C  C174  1  0.04680000  0.45080000  0.83040000  1.0 -0.263156593
C  C175  1  0.54920000  0.95320000  0.33040000  1.0 -0.263156593
C  C176  1  0.95320000  0.54920000  0.16960000  1.0 -0.263156593
O  O1  1  0.41230000  0.95150000  0.50450000  1.0 -0.2757590713
O  O2  1  0.95150000  0.41230000  0.99550000  1.0 -0.2757590713
O  O3  1  0.58770000  0.04850000  0.49550000  1.0 -0.2757590713
O  O4  1  0.04850000  0.58770000  0.00450000  1.0 -0.2757590713
O  O5  1  0.43297000  0.31457000  0.69520000  1.0 -0.5616298379
O  O6  1  0.31457000  0.43297000  0.80480000  1.0 -0.5616298379
O  O7  1  0.56703000  0.68543000  0.30480000  1.0 -0.5616298379
O  O8  1  0.68543000  0.56703000  0.19520000  1.0 -0.5616298379
O  O9  1  0.66838000  0.63578000  0.68460000  1.0 -0.5276254219
O  O10  1  0.63578000  0.66838000  0.81540000  1.0 -0.5276254219
O  O11  1  0.33162000  0.36422000  0.31540000  1.0 -0.5276254219
O  O12  1  0.36422000  0.33162000  0.18460000  1.0 -0.5276254219
O  O13  1  0.50969000  0.21109000  0.62270000  1.0 -0.5276254219
O  O14  1  0.21109000  0.50969000  0.87730000  1.0 -0.5276254219
O  O15  1  0.49031000  0.78891000  0.37730000  1.0 -0.5276254219
O  O16  1  0.78891000  0.49031000  0.12270000  1.0 -0.5276254219
O  O17  1  0.74473000  0.68293000  0.68560000  1.0 -0.5616298379
O  O18  1  0.68293000  0.74473000  0.81440000  1.0 -0.5616298379
O  O19  1  0.25527000  0.31707000  0.31440000  1.0 -0.5616298379
O  O20  1  0.31707000  0.25527000  0.18560000  1.0 -0.5616298379
O  O21  1  0.47622000  0.39862000  0.69280000  1.0 -0.5026943388
O  O22  1  0.39862000  0.47622000  0.80720000  1.0 -0.5026943388
O  O23  1  0.52378000  0.60138000  0.30720000  1.0 -0.5026943388
O  O24  1  0.60138000  0.52378000  0.19280000  1.0 -0.5026943388
O  O25  1  0.64720000  0.12480000  0.77520000  1.0 -0.5616298379
O  O26  1  0.12480000  0.64720000  0.72480000  1.0 -0.5616298379
O  O27  1  0.35280000  0.87520000  0.22480000  1.0 -0.5616298379
O  O28  1  0.87520000  0.35280000  0.27520000  1.0 -0.5616298379
O  O29  1  0.05340000  0.53300000  0.51820000  1.0 -0.2007100514
O  O30  1  0.53300000  0.05340000  0.98180000  1.0 -0.2007100514
O  O31  1  0.94660000  0.46700000  0.48180000  1.0 -0.2007100514
O  O32  1  0.46700000  0.94660000  0.01820000  1.0 -0.2007100514
O  O33  1  0.59842000  0.25422000  0.64630000  1.0 -0.5616298379
O  O34  1  0.25422000  0.59842000  0.85370000  1.0 -0.5616298379
O  O35  1  0.40158000  0.74578000  0.35370000  1.0 -0.5616298379
O  O36  1  0.74578000  0.40158000  0.14630000  1.0 -0.5616298379
O  O37  1  0.57007000  0.74667000  0.59050000  1.0 -0.5496108534
O  O38  1  0.74667000  0.57007000  0.90950000  1.0 -0.5496108534
O  O39  1  0.42993000  0.25333000  0.40950000  1.0 -0.5496108534
O  O40  1  0.25333000  0.42993000  0.09050000  1.0 -0.5496108534
O  O41  1  0.63680000  0.80400000  0.59570000  1.0 -0.5276254219
O  O42  1  0.80400000  0.63680000  0.90430000  1.0 -0.5276254219
O  O43  1  0.36320000  0.19600000  0.40430000  1.0 -0.5276254219
O  O44  1  0.19600000  0.36320000  0.09570000  1.0 -0.5276254219
O  O45  1  0.64428000  0.44588000  0.52940000  1.0 -0.2204929611
O  O46  1  0.44588000  0.64428000  0.97060000  1.0 -0.2204929611
O  O47  1  0.35572000  0.55412000  0.47060000  1.0 -0.2204929611
O  O48  1  0.55412000  0.35572000  0.02940000  1.0 -0.2204929611
O  O49  1  0.77170000  0.96550000  0.07680000  1.0 -0.2007100514
O  O50  1  0.96550000  0.77170000  0.42320000  1.0 -0.2007100514
O  O51  1  0.22830000  0.03450000  0.92320000  1.0 -0.2007100514
O  O52  1  0.03450000  0.22830000  0.57680000  1.0 -0.2007100514
O  O53  1  0.74390000  0.04030000  0.65290000  1.0 -0.3732908966
O  O54  1  0.04030000  0.74390000  0.84710000  1.0 -0.3732908966
O  O55  1  0.25610000  0.95970000  0.34710000  1.0 -0.3732908966
O  O56  1  0.95970000  0.25610000  0.15290000  1.0 -0.3732908966
O  O57  1  0.53595000  0.27115000  0.81390000  1.0 -0.5143275263
O  O58  1  0.27115000  0.53595000  0.68610000  1.0 -0.5143275263
O  O59  1  0.46405000  0.72885000  0.18610000  1.0 -0.5143275263
O  O60  1  0.72885000  0.46405000  0.31390000  1.0 -0.5143275263
O  O61  1  0.47433000  0.15733000  0.28590000  1.0 -0.5616298379
O  O62  1  0.15733000  0.47433000  0.21410000  1.0 -0.5616298379
O  O63  1  0.52567000  0.84267000  0.71410000  1.0 -0.5616298379
O  O64  1  0.84267000  0.52567000  0.78590000  1.0 -0.5616298379
O  O65  1  0.60890000  0.06770000  0.34890000  1.0 -0.4513640703
O  O66  1  0.06770000  0.60890000  0.15110000  1.0 -0.4513640703
O  O67  1  0.39110000  0.93230000  0.65110000  1.0 -0.4513640703
O  O68  1  0.93230000  0.39110000  0.84890000  1.0 -0.4513640703
O  O69  1  0.43600000  0.00800000  0.62310000  1.0 -0.3231375964
O  O70  1  0.00800000  0.43600000  0.87690000  1.0 -0.3231375964
O  O71  1  0.56400000  0.99200000  0.37690000  1.0 -0.3231375964
O  O72  1  0.99200000  0.56400000  0.12310000  1.0 -0.3231375964
