# DDEC6 charges by PACMAN v1.1 (https://github.com/mtap-research/PACMAN-charge/)
data_XAMHOM04_FSR_pacman
_symmetry_space_group_name_H-M   'P 1'
_cell_length_a   15.83930000
_cell_length_b   13.17620000
_cell_length_c   16.61500000
_cell_angle_alpha   90.00000000
_cell_angle_beta   99.32000000
_cell_angle_gamma   90.00000000
_symmetry_Int_Tables_number   1
_chemical_formula_structural   FeAg2H14(C4N)6
_chemical_formula_sum   'Fe4 Ag8 H56 C96 N24'
_cell_volume   3421.80547925
_cell_formula_units_Z   4
loop_
 _symmetry_equiv_pos_site_id
 _symmetry_equiv_pos_as_xyz
  1  'x, y, z'
loop_
 _atom_site_type_symbol
 _atom_site_label
 _atom_site_symmetry_multiplicity
 _atom_site_fract_x
 _atom_site_fract_y
 _atom_site_fract_z
 _atom_site_occupancy
 _atom_site_charge
Fe  Fe1  1  0.60085000  0.50016000  0.77586000  1.0 0.7629488151
Fe  Fe2  1  0.39915000  0.00016000  0.72414000  1.0 0.7629488151
Fe  Fe3  1  0.39915000  0.49984000  0.22414000  1.0 0.7629488151
Fe  Fe4  1  0.60085000  0.99984000  0.27586000  1.0 0.7629488151
Ag  Ag1  1  0.59581000  0.74309000  0.52029000  1.0 0.1563472025
Ag  Ag2  1  0.59640000  0.26751000  0.03643000  1.0 0.1563472025
Ag  Ag3  1  0.40419000  0.24309000  0.97971000  1.0 0.1563472025
Ag  Ag4  1  0.40360000  0.76751000  0.46357000  1.0 0.1563472025
Ag  Ag5  1  0.40419000  0.25691000  0.47971000  1.0 0.1563472025
Ag  Ag6  1  0.40360000  0.73249000  0.96357000  1.0 0.1563472025
Ag  Ag7  1  0.59581000  0.75691000  0.02029000  1.0 0.1563472025
Ag  Ag8  1  0.59640000  0.23249000  0.53643000  1.0 0.1563472025
H  H1  1  0.45160000  0.35210000  0.79310000  1.0 0.1116513341
H  H2  1  0.30930000  0.34750000  0.80110000  1.0 0.1288219954
H  H3  1  0.29740000  0.64540000  0.75650000  1.0 0.1288219954
H  H4  1  0.44160000  0.64350000  0.75150000  1.0 0.1195362272
H  H5  1  0.15760000  0.55460000  0.67290000  1.0 0.1195362272
H  H6  1  0.01210000  0.55510000  0.67360000  1.0 0.1195362272
H  H7  1  0.98220000  0.42860000  0.92640000  1.0 0.1116513341
H  H8  1  0.07420000  0.37800000  0.03900000  1.0 0.1116513341
H  H9  1  0.22170000  0.38580000  0.04210000  1.0 0.1116513341
H  H10  1  0.27490000  0.43600000  0.92900000  1.0 0.1116513341
H  H11  1  0.90120000  0.64580000  0.76160000  1.0 0.1369850303
H  H12  1  0.75620000  0.64560000  0.76090000  1.0 0.1116513341
H  H13  1  0.75710000  0.35540000  0.79370000  1.0 0.1116513341
H  H14  1  0.90190000  0.34810000  0.79990000  1.0 0.1369850303
H  H15  1  0.54840000  0.85210000  0.70690000  1.0 0.1116513341
H  H16  1  0.69070000  0.84750000  0.69890000  1.0 0.1288219954
H  H17  1  0.70260000  0.14540000  0.74350000  1.0 0.1288219954
H  H18  1  0.55840000  0.14350000  0.74850000  1.0 0.1195362272
H  H19  1  0.84240000  0.05460000  0.82710000  1.0 0.1195362272
H  H20  1  0.98790000  0.05510000  0.82640000  1.0 0.1195362272
H  H21  1  0.01780000  0.92860000  0.57360000  1.0 0.1116513341
H  H22  1  0.92580000  0.87800000  0.46100000  1.0 0.1116513341
H  H23  1  0.77830000  0.88580000  0.45790000  1.0 0.1195362272
H  H24  1  0.72510000  0.93600000  0.57100000  1.0 0.1116513341
H  H25  1  0.09880000  0.14580000  0.73840000  1.0 0.1369850303
H  H26  1  0.24380000  0.14560000  0.73910000  1.0 0.1116513341
H  H27  1  0.24290000  0.85540000  0.70630000  1.0 0.1116513341
H  H28  1  0.09810000  0.84810000  0.70010000  1.0 0.1369850303
H  H29  1  0.54840000  0.64790000  0.20690000  1.0 0.1116513341
H  H30  1  0.69070000  0.65250000  0.19890000  1.0 0.1288219954
H  H31  1  0.70260000  0.35460000  0.24350000  1.0 0.1288219954
H  H32  1  0.55840000  0.35650000  0.24850000  1.0 0.1195362272
H  H33  1  0.84240000  0.44540000  0.32710000  1.0 0.1195362272
H  H34  1  0.98790000  0.44490000  0.32640000  1.0 0.1195362272
H  H35  1  0.01780000  0.57140000  0.07360000  1.0 0.1116513341
H  H36  1  0.92580000  0.62200000  0.96100000  1.0 0.1116513341
H  H37  1  0.77830000  0.61420000  0.95790000  1.0 0.1116513341
H  H38  1  0.72510000  0.56400000  0.07100000  1.0 0.1116513341
H  H39  1  0.09880000  0.35420000  0.23840000  1.0 0.1369850303
H  H40  1  0.24380000  0.35440000  0.23910000  1.0 0.1116513341
H  H41  1  0.24290000  0.64460000  0.20630000  1.0 0.1116513341
H  H42  1  0.09810000  0.65190000  0.20010000  1.0 0.1369850303
H  H43  1  0.45160000  0.14790000  0.29310000  1.0 0.1116513341
H  H44  1  0.30930000  0.15250000  0.30110000  1.0 0.1288219954
H  H45  1  0.29740000  0.85460000  0.25650000  1.0 0.1288219954
H  H46  1  0.44160000  0.85650000  0.25150000  1.0 0.1195362272
H  H47  1  0.15760000  0.94540000  0.17290000  1.0 0.1195362272
H  H48  1  0.01210000  0.94490000  0.17360000  1.0 0.1195362272
H  H49  1  0.98220000  0.07140000  0.42640000  1.0 0.1116513341
H  H50  1  0.07420000  0.12200000  0.53900000  1.0 0.1116513341
H  H51  1  0.22170000  0.11420000  0.54210000  1.0 0.1116513341
H  H52  1  0.27490000  0.06400000  0.42900000  1.0 0.1116513341
H  H53  1  0.90120000  0.85420000  0.26160000  1.0 0.1369850303
H  H54  1  0.75620000  0.85440000  0.26090000  1.0 0.1116513341
H  H55  1  0.75710000  0.14460000  0.29370000  1.0 0.1116513341
H  H56  1  0.90190000  0.15190000  0.29990000  1.0 0.1369850303
C  C1  1  0.58870000  0.65920000  0.62260000  1.0 -0.0232637527
C  C2  1  0.59140000  0.32200000  0.63690000  1.0 -0.0137886731
C  C3  1  0.61070000  0.35020000  0.93460000  1.0 -0.0232637527
C  C4  1  0.60430000  0.66890000  0.91930000  1.0 -0.0137886731
C  C5  1  0.42050000  0.41220000  0.78620000  1.0 0.0972997391
C  C6  1  0.33470000  0.40880000  0.79100000  1.0 -0.2069922095
C  C7  1  0.28580000  0.49680000  0.78070000  1.0 0.1195362272
C  C8  1  0.32770000  0.58480000  0.76490000  1.0 -0.2021205896
C  C9  1  0.41470000  0.58320000  0.76150000  1.0 0.0972997391
C  C10  1  0.19250000  0.49740000  0.78360000  1.0 0.0177082385
C  C11  1  0.13680000  0.53100000  0.71870000  1.0 -0.1500069757
C  C12  1  0.04850000  0.53090000  0.71910000  1.0 -0.141979437
C  C13  1  0.01430000  0.49630000  0.78410000  1.0 0.005948013
C  C14  1  0.07080000  0.46070000  0.85480000  1.0 0.0381258767
C  C15  1  0.04080000  0.42950000  0.92560000  1.0 -0.1500069757
C  C16  1  0.09580000  0.40050000  0.99330000  1.0 -0.1002405469
C  C17  1  0.18460000  0.40400000  0.99500000  1.0 -0.0893373002
C  C18  1  0.21600000  0.43410000  0.92760000  1.0 -0.141979437
C  C19  1  0.16090000  0.46270000  0.85520000  1.0 0.0381258767
C  C20  1  0.92000000  0.49660000  0.78120000  1.0 0.1195362272
C  C21  1  0.87360000  0.58500000  0.76920000  1.0 -0.2069922095
C  C22  1  0.78560000  0.58430000  0.76820000  1.0 0.0906744453
C  C23  1  0.78640000  0.41540000  0.78800000  1.0 0.0906744453
C  C24  1  0.87400000  0.41020000  0.79110000  1.0 -0.2069922095
C  C25  1  0.41130000  0.15920000  0.87740000  1.0 -0.0232637527
C  C26  1  0.40860000  0.82200000  0.86310000  1.0 -0.0137886731
C  C27  1  0.38930000  0.85020000  0.56540000  1.0 -0.0232637527
C  C28  1  0.39570000  0.16890000  0.58070000  1.0 -0.0232637527
C  C29  1  0.57950000  0.91220000  0.71380000  1.0 0.0972997391
C  C30  1  0.66530000  0.90880000  0.70900000  1.0 -0.2021205896
C  C31  1  0.71420000  0.99680000  0.71930000  1.0 0.1195362272
C  C32  1  0.67230000  0.08480000  0.73510000  1.0 -0.2021205896
C  C33  1  0.58530000  0.08320000  0.73850000  1.0 0.0972997391
C  C34  1  0.80750000  0.99740000  0.71640000  1.0 0.0177082385
C  C35  1  0.86320000  0.03100000  0.78130000  1.0 -0.141979437
C  C36  1  0.95150000  0.03090000  0.78090000  1.0 -0.141979437
C  C37  1  0.98570000  0.99630000  0.71590000  1.0 0.005948013
C  C38  1  0.92920000  0.96070000  0.64520000  1.0 0.0381258767
C  C39  1  0.95920000  0.92950000  0.57440000  1.0 -0.1555907239
C  C40  1  0.90420000  0.90050000  0.50670000  1.0 -0.1002405469
C  C41  1  0.81540000  0.90400000  0.50500000  1.0 -0.0893373002
C  C42  1  0.78400000  0.93410000  0.57240000  1.0 -0.141979437
C  C43  1  0.83910000  0.96270000  0.64480000  1.0 0.0381258767
C  C44  1  0.08000000  0.99660000  0.71880000  1.0 0.1195362272
C  C45  1  0.12640000  0.08500000  0.73080000  1.0 -0.2069922095
C  C46  1  0.21440000  0.08430000  0.73180000  1.0 0.0906744453
C  C47  1  0.21360000  0.91540000  0.71200000  1.0 0.0906744453
C  C48  1  0.12600000  0.91020000  0.70890000  1.0 -0.2069922095
C  C49  1  0.41130000  0.34080000  0.37740000  1.0 -0.0232637527
C  C50  1  0.40860000  0.67800000  0.36310000  1.0 -0.0137886731
C  C51  1  0.38930000  0.64980000  0.06540000  1.0 -0.0232637527
C  C52  1  0.39570000  0.33110000  0.08070000  1.0 -0.0137886731
C  C53  1  0.57950000  0.58780000  0.21380000  1.0 0.0972997391
C  C54  1  0.66530000  0.59120000  0.20900000  1.0 -0.2021205896
C  C55  1  0.71420000  0.50320000  0.21930000  1.0 0.1195362272
C  C56  1  0.67230000  0.41520000  0.23510000  1.0 -0.2021205896
C  C57  1  0.58530000  0.41680000  0.23850000  1.0 0.0972997391
C  C58  1  0.80750000  0.50260000  0.21640000  1.0 0.0177082385
C  C59  1  0.86320000  0.46900000  0.28130000  1.0 -0.141979437
C  C60  1  0.95150000  0.46910000  0.28090000  1.0 -0.141979437
C  C61  1  0.98570000  0.50370000  0.21590000  1.0 0.005948013
C  C62  1  0.92920000  0.53930000  0.14520000  1.0 0.0381258767
C  C63  1  0.95920000  0.57050000  0.07440000  1.0 -0.1555907239
C  C64  1  0.90420000  0.59950000  0.00670000  1.0 -0.1002405469
C  C65  1  0.81540000  0.59600000  0.00500000  1.0 -0.0893373002
C  C66  1  0.78400000  0.56590000  0.07240000  1.0 -0.141979437
C  C67  1  0.83910000  0.53730000  0.14480000  1.0 0.0381258767
C  C68  1  0.08000000  0.50340000  0.21880000  1.0 0.1195362272
C  C69  1  0.12640000  0.41500000  0.23080000  1.0 -0.2069922095
C  C70  1  0.21440000  0.41570000  0.23180000  1.0 0.0906744453
C  C71  1  0.21360000  0.58460000  0.21200000  1.0 0.0906744453
C  C72  1  0.12600000  0.58980000  0.20890000  1.0 -0.2069922095
C  C73  1  0.58870000  0.84080000  0.12260000  1.0 -0.0232637527
C  C74  1  0.59140000  0.17800000  0.13690000  1.0 -0.0137886731
C  C75  1  0.61070000  0.14980000  0.43460000  1.0 -0.0232637527
C  C76  1  0.60430000  0.83110000  0.41930000  1.0 -0.0137886731
C  C77  1  0.42050000  0.08780000  0.28620000  1.0 0.0972997391
C  C78  1  0.33470000  0.09120000  0.29100000  1.0 -0.2021205896
C  C79  1  0.28580000  0.00320000  0.28070000  1.0 0.1195362272
C  C80  1  0.32770000  0.91520000  0.26490000  1.0 -0.2021205896
C  C81  1  0.41470000  0.91680000  0.26150000  1.0 0.0972997391
C  C82  1  0.19250000  0.00260000  0.28360000  1.0 0.0177082385
C  C83  1  0.13680000  0.96900000  0.21870000  1.0 -0.1500069757
C  C84  1  0.04850000  0.96910000  0.21910000  1.0 -0.141979437
C  C85  1  0.01430000  0.00370000  0.28410000  1.0 0.005948013
C  C86  1  0.07080000  0.03930000  0.35480000  1.0 0.0381258767
C  C87  1  0.04080000  0.07050000  0.42560000  1.0 -0.1500069757
C  C88  1  0.09580000  0.09950000  0.49330000  1.0 -0.1002405469
C  C89  1  0.18460000  0.09600000  0.49500000  1.0 -0.0893373002
C  C90  1  0.21600000  0.06590000  0.42760000  1.0 -0.141979437
C  C91  1  0.16090000  0.03730000  0.35520000  1.0 0.0381258767
C  C92  1  0.92000000  0.00340000  0.28120000  1.0 0.1195362272
C  C93  1  0.87360000  0.91500000  0.26920000  1.0 -0.2069922095
C  C94  1  0.78560000  0.91570000  0.26820000  1.0 0.0906744453
C  C95  1  0.78640000  0.08460000  0.28800000  1.0 0.0906744453
C  C96  1  0.87400000  0.08980000  0.29110000  1.0 -0.2069922095
N  N1  1  0.46160000  0.49740000  0.77220000  1.0 -0.2183280137
N  N2  1  0.74150000  0.50060000  0.77730000  1.0 -0.2069922095
N  N3  1  0.59090000  0.37650000  0.68980000  1.0 -0.3400591207
N  N4  1  0.58750000  0.60860000  0.67840000  1.0 -0.3400591207
N  N5  1  0.60850000  0.62020000  0.86420000  1.0 -0.346072112
N  N6  1  0.61510000  0.39380000  0.87660000  1.0 -0.346072112
N  N7  1  0.53840000  0.99740000  0.72780000  1.0 -0.2183280137
N  N8  1  0.25850000  0.00060000  0.72270000  1.0 -0.2069922095
N  N9  1  0.40910000  0.87650000  0.81020000  1.0 -0.3400591207
N  N10  1  0.41250000  0.10860000  0.82160000  1.0 -0.3400591207
N  N11  1  0.39150000  0.12020000  0.63580000  1.0 -0.346072112
N  N12  1  0.38490000  0.89380000  0.62340000  1.0 -0.346072112
N  N13  1  0.53840000  0.50260000  0.22780000  1.0 -0.2183280137
N  N14  1  0.25850000  0.49940000  0.22270000  1.0 -0.2069922095
N  N15  1  0.40910000  0.62350000  0.31020000  1.0 -0.3400591207
N  N16  1  0.41250000  0.39140000  0.32160000  1.0 -0.3400591207
N  N17  1  0.39150000  0.37980000  0.13580000  1.0 -0.3400591207
N  N18  1  0.38490000  0.60620000  0.12340000  1.0 -0.346072112
N  N19  1  0.46160000  0.00260000  0.27220000  1.0 -0.2183280137
N  N20  1  0.74150000  0.99940000  0.27730000  1.0 -0.2069922095
N  N21  1  0.59090000  0.12350000  0.18980000  1.0 -0.3400591207
N  N22  1  0.58750000  0.89140000  0.17840000  1.0 -0.3400591207
N  N23  1  0.60850000  0.87980000  0.36420000  1.0 -0.346072112
N  N24  1  0.61510000  0.10620000  0.37660000  1.0 -0.346072112
