# DDEC6 charges by PACMAN v1.1 (https://github.com/mtap-research/PACMAN-charge/)
data_XAMHOM03_ASR_pacman
_symmetry_space_group_name_H-M   'P 1'
_cell_length_a   15.47290000
_cell_length_b   13.21370000
_cell_length_c   15.83740000
_cell_angle_alpha   90.00000000
_cell_angle_beta   97.50500000
_cell_angle_gamma   90.00000000
_symmetry_Int_Tables_number   1
_chemical_formula_structural   FeAg2H14(C4N)6
_chemical_formula_sum   'Fe4 Ag8 H56 C96 N24'
_cell_volume   3210.28523894
_cell_formula_units_Z   4
loop_
 _symmetry_equiv_pos_site_id
 _symmetry_equiv_pos_as_xyz
  1  'x, y, z'
loop_
 _atom_site_type_symbol
 _atom_site_label
 _atom_site_symmetry_multiplicity
 _atom_site_fract_x
 _atom_site_fract_y
 _atom_site_fract_z
 _atom_site_occupancy
 _atom_site_charge
Fe  Fe1  1  0.60149000  0.50012000  0.77758000  1.0 0.5588977166
Fe  Fe2  1  0.39851000  0.00012000  0.72242000  1.0 0.5588977166
Fe  Fe3  1  0.39851000  0.49988000  0.22242000  1.0 0.5588977166
Fe  Fe4  1  0.60149000  0.99988000  0.27758000  1.0 0.5588977166
Ag  Ag1  1  0.59648000  0.74213000  0.52118000  1.0 0.1320298462
Ag  Ag2  1  0.59498000  0.26910000  0.04005000  1.0 0.1320298462
Ag  Ag3  1  0.40352000  0.24213000  0.97882000  1.0 0.13707496
Ag  Ag4  1  0.40502000  0.76910000  0.45995000  1.0 0.1320298462
Ag  Ag5  1  0.40352000  0.25787000  0.47882000  1.0 0.13707496
Ag  Ag6  1  0.40502000  0.73090000  0.95995000  1.0 0.1320298462
Ag  Ag7  1  0.59648000  0.75787000  0.02118000  1.0 0.1320298462
Ag  Ag8  1  0.59498000  0.23090000  0.54005000  1.0 0.1320298462
H  H1  1  0.46100000  0.35040000  0.79470000  1.0 0.1206410534
H  H2  1  0.31300000  0.34580000  0.80180000  1.0 0.1206410534
H  H3  1  0.30340000  0.64780000  0.75740000  1.0 0.1320298462
H  H4  1  0.45320000  0.64570000  0.75650000  1.0 0.1206410534
H  H5  1  0.16340000  0.55880000  0.66630000  1.0 0.1206410534
H  H6  1  0.01200000  0.56030000  0.66650000  1.0 0.1206410534
H  H7  1  0.97200000  0.41980000  0.92970000  1.0 0.1082479954
H  H8  1  0.06330000  0.36680000  0.04790000  1.0 0.1082479954
H  H9  1  0.21510000  0.37270000  0.04990000  1.0 0.1082479954
H  H10  1  0.27490000  0.43050000  0.93230000  1.0 0.1082479954
H  H11  1  0.89600000  0.64950000  0.75980000  1.0 0.13707496
H  H12  1  0.74640000  0.64790000  0.76060000  1.0 0.1206410534
H  H13  1  0.74680000  0.35320000  0.79430000  1.0 0.1206410534
H  H14  1  0.89660000  0.34630000  0.79820000  1.0 0.1320298462
H  H15  1  0.53900000  0.85040000  0.70530000  1.0 0.1206410534
H  H16  1  0.68700000  0.84580000  0.69820000  1.0 0.1206410534
H  H17  1  0.69660000  0.14780000  0.74260000  1.0 0.1320298462
H  H18  1  0.54680000  0.14570000  0.74350000  1.0 0.1206410534
H  H19  1  0.83660000  0.05880000  0.83370000  1.0 0.1206410534
H  H20  1  0.98800000  0.06030000  0.83350000  1.0 0.1206410534
H  H21  1  0.02800000  0.91980000  0.57030000  1.0 0.1082479954
H  H22  1  0.93670000  0.86680000  0.45210000  1.0 0.1082479954
H  H23  1  0.78490000  0.87270000  0.45010000  1.0 0.1082479954
H  H24  1  0.72510000  0.93050000  0.56770000  1.0 0.1082479954
H  H25  1  0.10400000  0.14950000  0.74020000  1.0 0.13707496
H  H26  1  0.25360000  0.14790000  0.73940000  1.0 0.1206410534
H  H27  1  0.25320000  0.85320000  0.70570000  1.0 0.1206410534
H  H28  1  0.10340000  0.84630000  0.70180000  1.0 0.1320298462
H  H29  1  0.53900000  0.64960000  0.20530000  1.0 0.1206410534
H  H30  1  0.68700000  0.65420000  0.19820000  1.0 0.1206410534
H  H31  1  0.69660000  0.35220000  0.24260000  1.0 0.1320298462
H  H32  1  0.54680000  0.35430000  0.24350000  1.0 0.1206410534
H  H33  1  0.83660000  0.44120000  0.33370000  1.0 0.1206410534
H  H34  1  0.98800000  0.43970000  0.33350000  1.0 0.1206410534
H  H35  1  0.02800000  0.58020000  0.07030000  1.0 0.1082479954
H  H36  1  0.93670000  0.63320000  0.95210000  1.0 0.1082479954
H  H37  1  0.78490000  0.62730000  0.95010000  1.0 0.1082479954
H  H38  1  0.72510000  0.56950000  0.06770000  1.0 0.1082479954
H  H39  1  0.10400000  0.35050000  0.24020000  1.0 0.13707496
H  H40  1  0.25360000  0.35210000  0.23940000  1.0 0.1206410534
H  H41  1  0.25320000  0.64680000  0.20570000  1.0 0.1206410534
H  H42  1  0.10340000  0.65370000  0.20180000  1.0 0.1320298462
H  H43  1  0.46100000  0.14960000  0.29470000  1.0 0.1206410534
H  H44  1  0.31300000  0.15420000  0.30180000  1.0 0.1206410534
H  H45  1  0.30340000  0.85220000  0.25740000  1.0 0.1320298462
H  H46  1  0.45320000  0.85430000  0.25650000  1.0 0.1206410534
H  H47  1  0.16340000  0.94120000  0.16630000  1.0 0.1206410534
H  H48  1  0.01200000  0.93970000  0.16650000  1.0 0.1206410534
H  H49  1  0.97200000  0.08020000  0.42970000  1.0 0.1082479954
H  H50  1  0.06330000  0.13320000  0.54790000  1.0 0.1082479954
H  H51  1  0.21510000  0.12730000  0.54990000  1.0 0.1082479954
H  H52  1  0.27490000  0.06950000  0.43230000  1.0 0.1082479954
H  H53  1  0.89600000  0.85050000  0.25980000  1.0 0.13707496
H  H54  1  0.74640000  0.85210000  0.26060000  1.0 0.1206410534
H  H55  1  0.74680000  0.14680000  0.29430000  1.0 0.1206410534
H  H56  1  0.89660000  0.15370000  0.29820000  1.0 0.1320298462
C  C1  1  0.58964000  0.65270000  0.62708000  1.0 -0.0323975811
C  C2  1  0.59180000  0.32790000  0.64236000  1.0 -0.0234337625
C  C3  1  0.60854000  0.35650000  0.93420000  1.0 -0.0373538942
C  C4  1  0.60435000  0.66400000  0.91758000  1.0 -0.0323975811
C  C5  1  0.42868000  0.41160000  0.78802000  1.0 0.0830264064
C  C6  1  0.34022000  0.40830000  0.79169000  1.0 -0.204071796
C  C7  1  0.29063000  0.49670000  0.78063000  1.0 0.1206410534
C  C8  1  0.33461000  0.58590000  0.76630000  1.0 -0.2078788825
C  C9  1  0.42413000  0.58400000  0.76503000  1.0 0.0854161881
C  C10  1  0.19467000  0.49630000  0.78264000  1.0 0.0156270914
C  C11  1  0.13957000  0.53310000  0.71428000  1.0 -0.1571916886
C  C12  1  0.04849000  0.53360000  0.71420000  1.0 -0.1490570162
C  C13  1  0.01158000  0.49570000  0.78230000  1.0 0.0009288528
C  C14  1  0.06634000  0.45690000  0.85506000  1.0 0.0404176238
C  C15  1  0.03324000  0.42180000  0.92904000  1.0 -0.1490570162
C  C16  1  0.08730000  0.39070000  0.99950000  1.0 -0.0968557395
C  C17  1  0.17798000  0.39390000  0.00058000  1.0 -0.0968557395
C  C18  1  0.21336000  0.42760000  0.93060000  1.0 -0.1490570162
C  C19  1  0.15918000  0.45820000  0.85573000  1.0 0.0404176238
C  C20  1  0.91474000  0.49740000  0.77997000  1.0 0.1206410534
C  C21  1  0.86708000  0.58750000  0.76798000  1.0 -0.2078788825
C  C22  1  0.77735000  0.58580000  0.76818000  1.0 0.0830264064
C  C23  1  0.77772000  0.41430000  0.78830000  1.0 0.0830264064
C  C24  1  0.86741000  0.40950000  0.79010000  1.0 -0.2078788825
C  C25  1  0.41036000  0.15270000  0.87292000  1.0 -0.0323975811
C  C26  1  0.40820000  0.82790000  0.85764000  1.0 -0.0234337625
C  C27  1  0.39146000  0.85650000  0.56580000  1.0 -0.0373538942
C  C28  1  0.39565000  0.16400000  0.58242000  1.0 -0.0323975811
C  C29  1  0.57132000  0.91160000  0.71198000  1.0 0.0830264064
C  C30  1  0.65978000  0.90830000  0.70831000  1.0 -0.204071796
C  C31  1  0.70937000  0.99670000  0.71937000  1.0 0.1206410534
C  C32  1  0.66539000  0.08590000  0.73370000  1.0 -0.2078788825
C  C33  1  0.57587000  0.08400000  0.73497000  1.0 0.0854161881
C  C34  1  0.80533000  0.99630000  0.71736000  1.0 0.0156270914
C  C35  1  0.86043000  0.03310000  0.78572000  1.0 -0.1571916886
C  C36  1  0.95151000  0.03360000  0.78580000  1.0 -0.1490570162
C  C37  1  0.98842000  0.99570000  0.71770000  1.0 0.0009288528
C  C38  1  0.93366000  0.95690000  0.64494000  1.0 0.0404176238
C  C39  1  0.96676000  0.92180000  0.57096000  1.0 -0.1490570162
C  C40  1  0.91270000  0.89070000  0.50050000  1.0 -0.0968557395
C  C41  1  0.82202000  0.89390000  0.49942000  1.0 -0.0968557395
C  C42  1  0.78664000  0.92760000  0.56940000  1.0 -0.1490570162
C  C43  1  0.84082000  0.95820000  0.64427000  1.0 0.0404176238
C  C44  1  0.08526000  0.99740000  0.72003000  1.0 0.1206410534
C  C45  1  0.13292000  0.08750000  0.73202000  1.0 -0.2078788825
C  C46  1  0.22265000  0.08580000  0.73182000  1.0 0.0830264064
C  C47  1  0.22228000  0.91430000  0.71170000  1.0 0.0830264064
C  C48  1  0.13259000  0.90950000  0.70990000  1.0 -0.2078788825
C  C49  1  0.41036000  0.34730000  0.37292000  1.0 -0.0373538942
C  C50  1  0.40820000  0.67210000  0.35764000  1.0 -0.0234337625
C  C51  1  0.39146000  0.64350000  0.06580000  1.0 -0.0373538942
C  C52  1  0.39565000  0.33600000  0.08242000  1.0 -0.0323975811
C  C53  1  0.57132000  0.58840000  0.21198000  1.0 0.0830264064
C  C54  1  0.65978000  0.59170000  0.20831000  1.0 -0.204071796
C  C55  1  0.70937000  0.50330000  0.21937000  1.0 0.1206410534
C  C56  1  0.66539000  0.41410000  0.23370000  1.0 -0.2078788825
C  C57  1  0.57587000  0.41600000  0.23497000  1.0 0.0830264064
C  C58  1  0.80533000  0.50370000  0.21736000  1.0 0.0156270914
C  C59  1  0.86043000  0.46690000  0.28572000  1.0 -0.1571916886
C  C60  1  0.95151000  0.46640000  0.28580000  1.0 -0.1490570162
C  C61  1  0.98842000  0.50430000  0.21770000  1.0 0.0009288528
C  C62  1  0.93366000  0.54310000  0.14494000  1.0 0.0404176238
C  C63  1  0.96676000  0.57820000  0.07096000  1.0 -0.1490570162
C  C64  1  0.91270000  0.60930000  0.00050000  1.0 -0.0968557395
C  C65  1  0.82202000  0.60610000  0.99942000  1.0 -0.0968557395
C  C66  1  0.78664000  0.57240000  0.06940000  1.0 -0.1490570162
C  C67  1  0.84082000  0.54180000  0.14427000  1.0 0.0404176238
C  C68  1  0.08526000  0.50260000  0.22003000  1.0 0.1206410534
C  C69  1  0.13292000  0.41250000  0.23202000  1.0 -0.2078788825
C  C70  1  0.22265000  0.41420000  0.23182000  1.0 0.0830264064
C  C71  1  0.22228000  0.58570000  0.21170000  1.0 0.0830264064
C  C72  1  0.13259000  0.59050000  0.20990000  1.0 -0.2078788825
C  C73  1  0.58964000  0.84730000  0.12708000  1.0 -0.0323975811
C  C74  1  0.59180000  0.17210000  0.14236000  1.0 -0.0234337625
C  C75  1  0.60854000  0.14350000  0.43420000  1.0 -0.0373538942
C  C76  1  0.60435000  0.83600000  0.41758000  1.0 -0.0323975811
C  C77  1  0.42868000  0.08840000  0.28802000  1.0 0.0830264064
C  C78  1  0.34022000  0.09170000  0.29169000  1.0 -0.204071796
C  C79  1  0.29063000  0.00330000  0.28063000  1.0 0.1206410534
C  C80  1  0.33461000  0.91410000  0.26630000  1.0 -0.2078788825
C  C81  1  0.42413000  0.91600000  0.26503000  1.0 0.0854161881
C  C82  1  0.19467000  0.00370000  0.28264000  1.0 0.0156270914
C  C83  1  0.13957000  0.96690000  0.21428000  1.0 -0.1571916886
C  C84  1  0.04849000  0.96640000  0.21420000  1.0 -0.1490570162
C  C85  1  0.01158000  0.00430000  0.28230000  1.0 0.0009288528
C  C86  1  0.06634000  0.04310000  0.35506000  1.0 0.0404176238
C  C87  1  0.03324000  0.07820000  0.42904000  1.0 -0.1490570162
C  C88  1  0.08730000  0.10930000  0.49950000  1.0 -0.0968557395
C  C89  1  0.17798000  0.10610000  0.50058000  1.0 -0.0968557395
C  C90  1  0.21336000  0.07240000  0.43060000  1.0 -0.1490570162
C  C91  1  0.15918000  0.04180000  0.35573000  1.0 0.0404176238
C  C92  1  0.91474000  0.00260000  0.27997000  1.0 0.1206410534
C  C93  1  0.86708000  0.91250000  0.26798000  1.0 -0.2078788825
C  C94  1  0.77735000  0.91420000  0.26818000  1.0 0.0830264064
C  C95  1  0.77772000  0.08570000  0.28830000  1.0 0.0830264064
C  C96  1  0.86741000  0.09050000  0.29010000  1.0 -0.2078788825
N  N1  1  0.47135000  0.49854000  0.77533000  1.0 -0.1266716145
N  N2  1  0.73215000  0.50119000  0.77850000  1.0 -0.1490570162
N  N3  1  0.59324000  0.38821000  0.69521000  1.0 -0.2827006899
N  N4  1  0.59113000  0.59762000  0.68367000  1.0 -0.2827006899
N  N5  1  0.60755000  0.60945000  0.86203000  1.0 -0.2914653331
N  N6  1  0.61127000  0.40509000  0.87408000  1.0 -0.2914653331
N  N7  1  0.52865000  0.99854000  0.72467000  1.0 -0.1266716145
N  N8  1  0.26785000  0.00119000  0.72150000  1.0 -0.1490570162
N  N9  1  0.40676000  0.88821000  0.80479000  1.0 -0.2827006899
N  N10  1  0.40887000  0.09762000  0.81633000  1.0 -0.2827006899
N  N11  1  0.39245000  0.10945000  0.63797000  1.0 -0.2914653331
N  N12  1  0.38873000  0.90509000  0.62592000  1.0 -0.2914653331
N  N13  1  0.52865000  0.50146000  0.22467000  1.0 -0.1266716145
N  N14  1  0.26785000  0.49881000  0.22150000  1.0 -0.1490570162
N  N15  1  0.40676000  0.61179000  0.30479000  1.0 -0.2827006899
N  N16  1  0.40887000  0.40238000  0.31633000  1.0 -0.2827006899
N  N17  1  0.39245000  0.39055000  0.13797000  1.0 -0.2914653331
N  N18  1  0.38873000  0.59491000  0.12592000  1.0 -0.2914653331
N  N19  1  0.47135000  0.00146000  0.27533000  1.0 -0.1266716145
N  N20  1  0.73215000  0.99881000  0.27850000  1.0 -0.1490570162
N  N21  1  0.59324000  0.11179000  0.19521000  1.0 -0.2827006899
N  N22  1  0.59113000  0.90238000  0.18367000  1.0 -0.2827006899
N  N23  1  0.60755000  0.89055000  0.36203000  1.0 -0.2914653331
N  N24  1  0.61127000  0.09491000  0.37408000  1.0 -0.2914653331
