# DDEC6 charges by PACMAN v1.1 (https://github.com/mtap-research/PACMAN-charge/)
data_XAMHOM_FSR_pacman
_symmetry_space_group_name_H-M   'P 1'
_cell_length_a   16.23450000
_cell_length_b   13.13090000
_cell_length_c   33.01080000
_cell_angle_alpha   90.00000000
_cell_angle_beta   110.54800000
_cell_angle_gamma   90.00000000
_symmetry_Int_Tables_number   1
_chemical_formula_structural   FeAg2H14(C4N)6
_chemical_formula_sum   'Fe8 Ag16 H112 C192 N48'
_cell_volume   6589.32427996
_cell_formula_units_Z   8
loop_
 _symmetry_equiv_pos_site_id
 _symmetry_equiv_pos_as_xyz
  1  'x, y, z'
loop_
 _atom_site_type_symbol
 _atom_site_label
 _atom_site_symmetry_multiplicity
 _atom_site_fract_x
 _atom_site_fract_y
 _atom_site_fract_z
 _atom_site_occupancy
 _atom_site_charge
Fe  Fe1  1  0.77426000  0.99916000  0.55075000  1.0 0.7688474268
Fe  Fe2  1  0.27430000  0.49942000  0.55074000  1.0 0.5536710829
Fe  Fe3  1  0.22574000  0.49916000  0.94925000  1.0 0.7688474268
Fe  Fe4  1  0.72570000  0.99942000  0.94926000  1.0 0.5536710829
Fe  Fe5  1  0.22574000  0.00084000  0.44925000  1.0 0.7688474268
Fe  Fe6  1  0.72570000  0.50058000  0.44926000  1.0 0.5536710829
Fe  Fe7  1  0.77426000  0.50084000  0.05075000  1.0 0.7688474268
Fe  Fe8  1  0.27430000  0.00058000  0.05074000  1.0 0.5536710829
Ag  Ag1  1  0.03356000  0.75464000  0.54805000  1.0 0.1481638089
Ag  Ag2  1  0.01589000  0.27138000  0.54890000  1.0 0.1380746246
Ag  Ag3  1  0.50340000  0.23285000  0.54742000  1.0 0.1481638089
Ag  Ag4  1  0.52212000  0.73848000  0.54748000  1.0 0.1481638089
Ag  Ag5  1  0.96644000  0.25464000  0.95195000  1.0 0.1481638089
Ag  Ag6  1  0.98411000  0.77138000  0.95110000  1.0 0.1380746246
Ag  Ag7  1  0.49660000  0.73285000  0.95258000  1.0 0.1481638089
Ag  Ag8  1  0.47788000  0.23848000  0.95252000  1.0 0.1481638089
Ag  Ag9  1  0.96644000  0.24536000  0.45195000  1.0 0.1481638089
Ag  Ag10  1  0.98411000  0.72862000  0.45110000  1.0 0.1380746246
Ag  Ag11  1  0.49660000  0.76715000  0.45258000  1.0 0.1481638089
Ag  Ag12  1  0.47788000  0.26152000  0.45252000  1.0 0.1481638089
Ag  Ag13  1  0.03356000  0.74536000  0.04805000  1.0 0.1481638089
Ag  Ag14  1  0.01589000  0.22862000  0.04890000  1.0 0.1380746246
Ag  Ag15  1  0.50340000  0.26715000  0.04742000  1.0 0.1481638089
Ag  Ag16  1  0.52212000  0.76152000  0.04748000  1.0 0.1481638089
H  H1  1  0.94773000  0.64840000  0.20298000  1.0 0.1380746246
H  H2  1  0.32946000  0.35132000  0.62329000  1.0 0.1210556229
H  H3  1  0.45169000  0.43183000  0.88539000  1.0 0.1104362288
H  H4  1  0.39599000  0.34561000  0.69686000  1.0 0.1380746246
H  H5  1  0.18918000  0.34941000  0.48106000  1.0 0.1210556229
H  H6  1  0.16686000  0.55938000  0.33424000  1.0 0.1210556229
H  H7  1  0.09237000  0.55697000  0.25902000  1.0 0.1210556229
H  H8  1  0.63902000  0.64565000  0.89711000  1.0 0.1293020395
H  H9  1  0.11117000  0.34518000  0.40829000  1.0 0.1293020395
H  H10  1  0.58104000  0.55944000  0.75291000  1.0 0.1210556229
H  H11  1  0.65599000  0.55322000  0.82698000  1.0 0.1210556229
H  H12  1  0.35838000  0.64816000  0.62298000  1.0 0.1210556229
H  H13  1  0.87452000  0.64907000  0.12872000  1.0 0.1104362288
H  H14  1  0.22256000  0.64549000  0.47764000  1.0 0.1210556229
H  H15  1  0.74568000  0.37059000  0.28638000  1.0 0.1104362288
H  H16  1  0.81749000  0.42073000  0.24044000  1.0 0.1104362288
H  H17  1  0.82001000  0.37637000  0.36141000  1.0 0.1104362288
H  H18  1  0.90534000  0.34642000  0.20201000  1.0 0.1380746246
H  H19  1  0.14891000  0.64790000  0.40350000  1.0 0.1293020395
H  H20  1  0.30265000  0.42613000  0.73564000  1.0 0.1104362288
H  H21  1  0.83555000  0.35380000  0.12855000  1.0 0.1104362288
H  H22  1  0.43103000  0.64920000  0.69674000  1.0 0.1380746246
H  H23  1  0.67964000  0.34939000  0.97537000  1.0 0.1104362288
H  H24  1  0.23479000  0.37489000  0.78173000  1.0 0.1104362288
H  H25  1  0.71728000  0.64458000  0.97085000  1.0 0.1104362288
H  H26  1  0.30634000  0.38182000  0.85730000  1.0 0.1210556229
H  H27  1  0.59497000  0.34596000  0.90357000  1.0 0.1210556229
H  H28  1  0.96247000  0.43214000  0.39011000  1.0 0.1104362288
H  H29  1  0.05227000  0.14840000  0.29702000  1.0 0.1380746246
H  H30  1  0.67054000  0.85132000  0.87671000  1.0 0.1210556229
H  H31  1  0.54831000  0.93183000  0.61461000  1.0 0.1104362288
H  H32  1  0.60401000  0.84561000  0.80314000  1.0 0.1380746246
H  H33  1  0.81082000  0.84941000  0.01894000  1.0 0.1210556229
H  H34  1  0.83314000  0.05938000  0.16576000  1.0 0.1210556229
H  H35  1  0.90763000  0.05697000  0.24098000  1.0 0.1210556229
H  H36  1  0.36098000  0.14565000  0.60289000  1.0 0.1293020395
H  H37  1  0.88883000  0.84518000  0.09171000  1.0 0.1293020395
H  H38  1  0.41896000  0.05944000  0.74709000  1.0 0.1210556229
H  H39  1  0.34401000  0.05322000  0.67302000  1.0 0.1210556229
H  H40  1  0.64162000  0.14816000  0.87702000  1.0 0.1210556229
H  H41  1  0.12548000  0.14907000  0.37128000  1.0 0.1104362288
H  H42  1  0.77744000  0.14549000  0.02236000  1.0 0.1210556229
H  H43  1  0.25432000  0.87059000  0.21362000  1.0 0.1104362288
H  H44  1  0.18251000  0.92073000  0.25956000  1.0 0.1104362288
H  H45  1  0.17999000  0.87637000  0.13859000  1.0 0.1104362288
H  H46  1  0.09466000  0.84642000  0.29799000  1.0 0.1380746246
H  H47  1  0.85109000  0.14790000  0.09650000  1.0 0.1293020395
H  H48  1  0.69735000  0.92613000  0.76436000  1.0 0.1104362288
H  H49  1  0.16445000  0.85380000  0.37145000  1.0 0.1104362288
H  H50  1  0.56897000  0.14920000  0.80326000  1.0 0.1380746246
H  H51  1  0.32036000  0.84939000  0.52463000  1.0 0.1104362288
H  H52  1  0.76521000  0.87489000  0.71827000  1.0 0.1104362288
H  H53  1  0.28272000  0.14458000  0.52915000  1.0 0.1104362288
H  H54  1  0.69366000  0.88182000  0.64270000  1.0 0.1210556229
H  H55  1  0.40503000  0.84596000  0.59643000  1.0 0.1210556229
H  H56  1  0.03753000  0.93214000  0.10989000  1.0 0.1104362288
H  H57  1  0.05227000  0.35160000  0.79702000  1.0 0.1380746246
H  H58  1  0.67054000  0.64868000  0.37671000  1.0 0.1210556229
H  H59  1  0.54831000  0.56817000  0.11461000  1.0 0.1104362288
H  H60  1  0.60401000  0.65439000  0.30314000  1.0 0.1380746246
H  H61  1  0.81082000  0.65059000  0.51894000  1.0 0.1210556229
H  H62  1  0.83314000  0.44062000  0.66576000  1.0 0.1210556229
H  H63  1  0.90763000  0.44303000  0.74098000  1.0 0.1210556229
H  H64  1  0.36098000  0.35435000  0.10289000  1.0 0.1293020395
H  H65  1  0.88883000  0.65482000  0.59171000  1.0 0.1293020395
H  H66  1  0.41896000  0.44056000  0.24709000  1.0 0.1210556229
H  H67  1  0.34401000  0.44678000  0.17302000  1.0 0.1210556229
H  H68  1  0.64162000  0.35184000  0.37702000  1.0 0.1210556229
H  H69  1  0.12548000  0.35093000  0.87128000  1.0 0.1104362288
H  H70  1  0.77744000  0.35451000  0.52236000  1.0 0.1210556229
H  H71  1  0.25432000  0.62941000  0.71362000  1.0 0.1104362288
H  H72  1  0.18251000  0.57927000  0.75956000  1.0 0.1104362288
H  H73  1  0.17999000  0.62363000  0.63859000  1.0 0.1104362288
H  H74  1  0.09466000  0.65358000  0.79799000  1.0 0.1380746246
H  H75  1  0.85109000  0.35210000  0.59650000  1.0 0.1293020395
H  H76  1  0.69735000  0.57387000  0.26436000  1.0 0.1104362288
H  H77  1  0.16445000  0.64620000  0.87145000  1.0 0.1104362288
H  H78  1  0.56897000  0.35080000  0.30326000  1.0 0.1380746246
H  H79  1  0.32036000  0.65061000  0.02463000  1.0 0.1104362288
H  H80  1  0.76521000  0.62511000  0.21827000  1.0 0.1104362288
H  H81  1  0.28272000  0.35542000  0.02915000  1.0 0.1104362288
H  H82  1  0.69366000  0.61818000  0.14270000  1.0 0.1210556229
H  H83  1  0.40503000  0.65404000  0.09643000  1.0 0.1210556229
H  H84  1  0.03753000  0.56786000  0.60989000  1.0 0.1104362288
H  H85  1  0.94773000  0.85160000  0.70298000  1.0 0.1380746246
H  H86  1  0.32946000  0.14868000  0.12329000  1.0 0.1210556229
H  H87  1  0.45169000  0.06817000  0.38539000  1.0 0.1104362288
H  H88  1  0.39599000  0.15439000  0.19686000  1.0 0.1380746246
H  H89  1  0.18918000  0.15059000  0.98106000  1.0 0.1210556229
H  H90  1  0.16686000  0.94062000  0.83424000  1.0 0.1210556229
H  H91  1  0.09237000  0.94303000  0.75902000  1.0 0.1210556229
H  H92  1  0.63902000  0.85435000  0.39711000  1.0 0.1293020395
H  H93  1  0.11117000  0.15482000  0.90829000  1.0 0.1293020395
H  H94  1  0.58104000  0.94056000  0.25291000  1.0 0.1210556229
H  H95  1  0.65599000  0.94678000  0.32698000  1.0 0.1210556229
H  H96  1  0.35838000  0.85184000  0.12298000  1.0 0.1210556229
H  H97  1  0.87452000  0.85093000  0.62872000  1.0 0.1104362288
H  H98  1  0.22256000  0.85451000  0.97764000  1.0 0.1210556229
H  H99  1  0.74568000  0.12941000  0.78638000  1.0 0.1104362288
H  H100  1  0.81749000  0.07927000  0.74044000  1.0 0.1104362288
H  H101  1  0.82001000  0.12363000  0.86141000  1.0 0.1104362288
H  H102  1  0.90534000  0.15358000  0.70201000  1.0 0.1380746246
H  H103  1  0.14891000  0.85210000  0.90350000  1.0 0.1293020395
H  H104  1  0.30265000  0.07387000  0.23564000  1.0 0.1104362288
H  H105  1  0.83555000  0.14620000  0.62855000  1.0 0.1104362288
H  H106  1  0.43103000  0.85080000  0.19674000  1.0 0.1380746246
H  H107  1  0.67964000  0.15061000  0.47537000  1.0 0.1104362288
H  H108  1  0.23479000  0.12511000  0.28173000  1.0 0.1104362288
H  H109  1  0.71728000  0.85542000  0.47085000  1.0 0.1104362288
H  H110  1  0.30634000  0.11818000  0.35730000  1.0 0.1210556229
H  H111  1  0.59497000  0.15404000  0.40357000  1.0 0.1210556229
H  H112  1  0.96247000  0.06786000  0.89011000  1.0 0.1104362288
C  C1  1  0.97990000  0.49560000  0.25960000  1.0 0.0033705937
C  C2  1  0.13990000  0.66220000  0.55240000  1.0 -0.0425276859
C  C3  1  0.92470000  0.58670000  0.18840000  1.0 -0.2079948015
C  C4  1  0.93480000  0.49600000  0.21150000  1.0 0.1210556229
C  C5  1  0.06870000  0.49580000  0.34920000  1.0 0.0200192076
C  C6  1  0.11790000  0.49670000  0.39690000  1.0 0.1210556229
C  C7  1  0.60860000  0.49540000  0.89150000  1.0 0.1210556229
C  C8  1  0.34920000  0.41330000  0.63840000  1.0 0.0687895664
C  C9  1  0.42480000  0.45940000  0.78190000  1.0 0.0375817578
C  C10  1  0.46740000  0.49610000  0.75340000  1.0 0.0033705937
C  C11  1  0.42230000  0.49750000  0.70600000  1.0 0.1210556229
C  C12  1  0.46910000  0.46000000  0.82780000  1.0 0.0375817578
C  C13  1  0.40150000  0.32780000  0.54590000  1.0 -0.0309684757
C  C14  1  0.42250000  0.43060000  0.85490000  1.0 -0.1420932377
C  C15  1  0.61450000  0.14870000  0.55500000  1.0 -0.0309684757
C  C16  1  0.38980000  0.40920000  0.68230000  1.0 -0.2003842868
C  C17  1  0.18010000  0.41130000  0.46520000  1.0 0.0780647215
C  C18  1  0.10880000  0.53290000  0.32260000  1.0 -0.1497017523
C  C19  1  0.91170000  0.17900000  0.54610000  1.0 -0.020764031
C  C20  1  0.55870000  0.49660000  0.84430000  1.0 0.0200192076
C  C21  1  0.12630000  0.35620000  0.55500000  1.0 -0.0425276859
C  C22  1  0.06350000  0.53170000  0.27750000  1.0 -0.1420932377
C  C23  1  0.64580000  0.58370000  0.91280000  1.0 -0.2003842868
C  C24  1  0.93570000  0.45850000  0.28680000  1.0 0.0375817578
C  C25  1  0.13330000  0.40840000  0.42170000  1.0 -0.2003842868
C  C26  1  0.55250000  0.53260000  0.77120000  1.0 -0.1497017523
C  C27  1  0.59670000  0.53030000  0.81590000  1.0 -0.1497017523
C  C28  1  0.92320000  0.83800000  0.54440000  1.0 -0.0309684757
C  C29  1  0.36660000  0.58530000  0.63810000  1.0 0.0780647215
C  C30  1  0.41480000  0.64830000  0.54400000  1.0 -0.0309684757
C  C31  1  0.88080000  0.58640000  0.14390000  1.0 0.090320534
C  C32  1  0.98040000  0.45980000  0.33220000  1.0 0.0375817578
C  C33  1  0.20020000  0.58330000  0.46330000  1.0 0.090320534
C  C34  1  0.80490000  0.39350000  0.29780000  1.0 -0.0982704699
C  C35  1  0.84770000  0.42350000  0.27080000  1.0 -0.1597671151
C  C36  1  0.84960000  0.39710000  0.34250000  1.0 -0.0913499062
C  C37  1  0.90000000  0.41020000  0.18770000  1.0 -0.2079948015
C  C38  1  0.15480000  0.58560000  0.41890000  1.0 -0.2079948015
C  C39  1  0.33420000  0.42700000  0.76590000  1.0 -0.1497017523
C  C40  1  0.85790000  0.41500000  0.14380000  1.0 0.090320534
C  C41  1  0.40980000  0.58660000  0.68240000  1.0 -0.2079948015
C  C42  1  0.62790000  0.82860000  0.55160000  1.0 -0.020764031
C  C43  1  0.67000000  0.41130000  0.95950000  1.0 0.090320534
C  C44  1  0.29400000  0.39790000  0.79320000  1.0 -0.0913499062
C  C45  1  0.69310000  0.58250000  0.95690000  1.0 0.0964868278
C  C46  1  0.33680000  0.40060000  0.83850000  1.0 -0.0913499062
C  C47  1  0.62090000  0.40830000  0.91650000  1.0 -0.2003842868
C  C48  1  0.93400000  0.42960000  0.35960000  1.0 -0.1420932377
C  C49  1  0.02010000  0.99560000  0.24040000  1.0 0.0033705937
C  C50  1  0.86010000  0.16220000  0.94760000  1.0 -0.0425276859
C  C51  1  0.07530000  0.08670000  0.31160000  1.0 -0.2079948015
C  C52  1  0.06520000  0.99600000  0.28850000  1.0 0.1210556229
C  C53  1  0.93130000  0.99580000  0.15080000  1.0 0.0200192076
C  C54  1  0.88210000  0.99670000  0.10310000  1.0 0.1210556229
C  C55  1  0.39140000  0.99540000  0.60850000  1.0 0.1210556229
C  C56  1  0.65080000  0.91330000  0.86160000  1.0 0.0687895664
C  C57  1  0.57520000  0.95940000  0.71810000  1.0 0.0375817578
C  C58  1  0.53260000  0.99610000  0.74660000  1.0 0.0033705937
C  C59  1  0.57770000  0.99750000  0.79400000  1.0 0.1210556229
C  C60  1  0.53090000  0.96000000  0.67220000  1.0 0.0375817578
C  C61  1  0.59850000  0.82780000  0.95410000  1.0 -0.0309684757
C  C62  1  0.57750000  0.93060000  0.64510000  1.0 -0.1420932377
C  C63  1  0.38550000  0.64870000  0.94500000  1.0 -0.0309684757
C  C64  1  0.61020000  0.90920000  0.81770000  1.0 -0.2003842868
C  C65  1  0.81990000  0.91130000  0.03480000  1.0 0.0780647215
C  C66  1  0.89120000  0.03290000  0.17740000  1.0 -0.1497017523
C  C67  1  0.08830000  0.67900000  0.95390000  1.0 -0.020764031
C  C68  1  0.44130000  0.99660000  0.65570000  1.0 0.0200192076
C  C69  1  0.87370000  0.85620000  0.94500000  1.0 -0.0425276859
C  C70  1  0.93650000  0.03170000  0.22250000  1.0 -0.1420932377
C  C71  1  0.35420000  0.08370000  0.58720000  1.0 -0.2003842868
C  C72  1  0.06430000  0.95850000  0.21320000  1.0 0.0375817578
C  C73  1  0.86670000  0.90840000  0.07830000  1.0 -0.2003842868
C  C74  1  0.44750000  0.03260000  0.72880000  1.0 -0.1497017523
C  C75  1  0.40330000  0.03030000  0.68410000  1.0 -0.1497017523
C  C76  1  0.07680000  0.33800000  0.95560000  1.0 -0.0309684757
C  C77  1  0.63340000  0.08530000  0.86190000  1.0 0.0780647215
C  C78  1  0.58520000  0.14830000  0.95600000  1.0 -0.0309684757
C  C79  1  0.11920000  0.08640000  0.35610000  1.0 0.090320534
C  C80  1  0.01960000  0.95980000  0.16780000  1.0 0.0375817578
C  C81  1  0.79980000  0.08330000  0.03670000  1.0 0.090320534
C  C82  1  0.19510000  0.89350000  0.20220000  1.0 -0.0982704699
C  C83  1  0.15230000  0.92350000  0.22920000  1.0 -0.1597671151
C  C84  1  0.15040000  0.89710000  0.15750000  1.0 -0.0913499062
C  C85  1  0.10000000  0.91020000  0.31230000  1.0 -0.2079948015
C  C86  1  0.84520000  0.08560000  0.08110000  1.0 -0.2079948015
C  C87  1  0.66580000  0.92700000  0.73410000  1.0 -0.1497017523
C  C88  1  0.14210000  0.91500000  0.35620000  1.0 0.090320534
C  C89  1  0.59020000  0.08660000  0.81760000  1.0 -0.2079948015
C  C90  1  0.37210000  0.32860000  0.94840000  1.0 -0.020764031
C  C91  1  0.33000000  0.91130000  0.54050000  1.0 0.090320534
C  C92  1  0.70600000  0.89790000  0.70680000  1.0 -0.0913499062
C  C93  1  0.30690000  0.08250000  0.54310000  1.0 0.0964868278
C  C94  1  0.66320000  0.90060000  0.66150000  1.0 -0.0913499062
C  C95  1  0.37910000  0.90830000  0.58350000  1.0 -0.2003842868
C  C96  1  0.06600000  0.92960000  0.14040000  1.0 -0.1420932377
C  C97  1  0.02010000  0.50440000  0.74040000  1.0 0.0033705937
C  C98  1  0.86010000  0.33780000  0.44760000  1.0 -0.0425276859
C  C99  1  0.07530000  0.41330000  0.81160000  1.0 -0.2079948015
C  C100  1  0.06520000  0.50400000  0.78850000  1.0 0.1210556229
C  C101  1  0.93130000  0.50420000  0.65080000  1.0 0.0200192076
C  C102  1  0.88210000  0.50330000  0.60310000  1.0 0.1210556229
C  C103  1  0.39140000  0.50460000  0.10850000  1.0 0.1210556229
C  C104  1  0.65080000  0.58670000  0.36160000  1.0 0.0687895664
C  C105  1  0.57520000  0.54060000  0.21810000  1.0 0.0375817578
C  C106  1  0.53260000  0.50390000  0.24660000  1.0 0.0033705937
C  C107  1  0.57770000  0.50250000  0.29400000  1.0 0.1210556229
C  C108  1  0.53090000  0.54000000  0.17220000  1.0 0.0375817578
C  C109  1  0.59850000  0.67220000  0.45410000  1.0 -0.0309684757
C  C110  1  0.57750000  0.56940000  0.14510000  1.0 -0.1420932377
C  C111  1  0.38550000  0.85130000  0.44500000  1.0 -0.0309684757
C  C112  1  0.61020000  0.59080000  0.31770000  1.0 -0.2003842868
C  C113  1  0.81990000  0.58870000  0.53480000  1.0 0.0780647215
C  C114  1  0.89120000  0.46710000  0.67740000  1.0 -0.1497017523
C  C115  1  0.08830000  0.82100000  0.45390000  1.0 -0.020764031
C  C116  1  0.44130000  0.50340000  0.15570000  1.0 0.0200192076
C  C117  1  0.87370000  0.64380000  0.44500000  1.0 -0.0425276859
C  C118  1  0.93650000  0.46830000  0.72250000  1.0 -0.1420932377
C  C119  1  0.35420000  0.41630000  0.08720000  1.0 -0.2003842868
C  C120  1  0.06430000  0.54150000  0.71320000  1.0 0.0375817578
C  C121  1  0.86670000  0.59160000  0.57830000  1.0 -0.2003842868
C  C122  1  0.44750000  0.46740000  0.22880000  1.0 -0.1497017523
C  C123  1  0.40330000  0.46970000  0.18410000  1.0 -0.1497017523
C  C124  1  0.07680000  0.16200000  0.45560000  1.0 -0.0309684757
C  C125  1  0.63340000  0.41470000  0.36190000  1.0 0.0780647215
C  C126  1  0.58520000  0.35170000  0.45600000  1.0 -0.0309684757
C  C127  1  0.11920000  0.41360000  0.85610000  1.0 0.090320534
C  C128  1  0.01960000  0.54020000  0.66780000  1.0 0.0375817578
C  C129  1  0.79980000  0.41670000  0.53670000  1.0 0.090320534
C  C130  1  0.19510000  0.60650000  0.70220000  1.0 -0.0982704699
C  C131  1  0.15230000  0.57650000  0.72920000  1.0 -0.1597671151
C  C132  1  0.15040000  0.60290000  0.65750000  1.0 -0.0913499062
C  C133  1  0.10000000  0.58980000  0.81230000  1.0 -0.2079948015
C  C134  1  0.84520000  0.41440000  0.58110000  1.0 -0.2079948015
C  C135  1  0.66580000  0.57300000  0.23410000  1.0 -0.1497017523
C  C136  1  0.14210000  0.58500000  0.85620000  1.0 0.090320534
C  C137  1  0.59020000  0.41340000  0.31760000  1.0 -0.2079948015
C  C138  1  0.37210000  0.17140000  0.44840000  1.0 -0.020764031
C  C139  1  0.33000000  0.58870000  0.04050000  1.0 0.090320534
C  C140  1  0.70600000  0.60210000  0.20680000  1.0 -0.0913499062
C  C141  1  0.30690000  0.41750000  0.04310000  1.0 0.0964868278
C  C142  1  0.66320000  0.59940000  0.16150000  1.0 -0.0913499062
C  C143  1  0.37910000  0.59170000  0.08350000  1.0 -0.2003842868
C  C144  1  0.06600000  0.57040000  0.64040000  1.0 -0.1420932377
C  C145  1  0.97990000  0.00440000  0.75960000  1.0 0.0033705937
C  C146  1  0.13990000  0.83780000  0.05240000  1.0 -0.0425276859
C  C147  1  0.92470000  0.91330000  0.68840000  1.0 -0.2079948015
C  C148  1  0.93480000  0.00400000  0.71150000  1.0 0.1210556229
C  C149  1  0.06870000  0.00420000  0.84920000  1.0 0.0200192076
C  C150  1  0.11790000  0.00330000  0.89690000  1.0 0.1210556229
C  C151  1  0.60860000  0.00460000  0.39150000  1.0 0.1210556229
C  C152  1  0.34920000  0.08670000  0.13840000  1.0 0.0687895664
C  C153  1  0.42480000  0.04060000  0.28190000  1.0 0.0375817578
C  C154  1  0.46740000  0.00390000  0.25340000  1.0 0.0033705937
C  C155  1  0.42230000  0.00250000  0.20600000  1.0 0.1210556229
C  C156  1  0.46910000  0.04000000  0.32780000  1.0 0.0375817578
C  C157  1  0.40150000  0.17220000  0.04590000  1.0 -0.0309684757
C  C158  1  0.42250000  0.06940000  0.35490000  1.0 -0.1420932377
C  C159  1  0.61450000  0.35130000  0.05500000  1.0 -0.0309684757
C  C160  1  0.38980000  0.09080000  0.18230000  1.0 -0.2003842868
C  C161  1  0.18010000  0.08870000  0.96520000  1.0 0.0780647215
C  C162  1  0.10880000  0.96710000  0.82260000  1.0 -0.1497017523
C  C163  1  0.91170000  0.32100000  0.04610000  1.0 -0.020764031
C  C164  1  0.55870000  0.00340000  0.34430000  1.0 0.0200192076
C  C165  1  0.12630000  0.14380000  0.05500000  1.0 -0.0425276859
C  C166  1  0.06350000  0.96830000  0.77750000  1.0 -0.1420932377
C  C167  1  0.64580000  0.91630000  0.41280000  1.0 -0.2003842868
C  C168  1  0.93570000  0.04150000  0.78680000  1.0 0.0375817578
C  C169  1  0.13330000  0.09160000  0.92170000  1.0 -0.2003842868
C  C170  1  0.55250000  0.96740000  0.27120000  1.0 -0.1497017523
C  C171  1  0.59670000  0.96970000  0.31590000  1.0 -0.1497017523
C  C172  1  0.92320000  0.66200000  0.04440000  1.0 -0.0309684757
C  C173  1  0.36660000  0.91470000  0.13810000  1.0 0.0780647215
C  C174  1  0.41480000  0.85170000  0.04400000  1.0 -0.0309684757
C  C175  1  0.88080000  0.91360000  0.64390000  1.0 0.090320534
C  C176  1  0.98040000  0.04020000  0.83220000  1.0 0.0375817578
C  C177  1  0.20020000  0.91670000  0.96330000  1.0 0.090320534
C  C178  1  0.80490000  0.10650000  0.79780000  1.0 -0.0982704699
C  C179  1  0.84770000  0.07650000  0.77080000  1.0 -0.1597671151
C  C180  1  0.84960000  0.10290000  0.84250000  1.0 -0.0913499062
C  C181  1  0.90000000  0.08980000  0.68770000  1.0 -0.2079948015
C  C182  1  0.15480000  0.91440000  0.91890000  1.0 -0.2079948015
C  C183  1  0.33420000  0.07300000  0.26590000  1.0 -0.1497017523
C  C184  1  0.85790000  0.08500000  0.64380000  1.0 0.090320534
C  C185  1  0.40980000  0.91340000  0.18240000  1.0 -0.2079948015
C  C186  1  0.62790000  0.67140000  0.05160000  1.0 -0.020764031
C  C187  1  0.67000000  0.08870000  0.45950000  1.0 0.090320534
C  C188  1  0.29400000  0.10210000  0.29320000  1.0 -0.0913499062
C  C189  1  0.69310000  0.91750000  0.45690000  1.0 0.0964868278
C  C190  1  0.33680000  0.09940000  0.33850000  1.0 -0.0913499062
C  C191  1  0.62090000  0.09170000  0.41650000  1.0 -0.2003842868
C  C192  1  0.93400000  0.07040000  0.85960000  1.0 -0.1420932377
N  N1  1  0.33570000  0.50050000  0.61536000  1.0 -0.1302873842
N  N2  1  0.84690000  0.50160000  0.12129000  1.0 -0.2079948015
N  N3  1  0.70580000  0.49750000  0.98069000  1.0 -0.2079948015
N  N4  1  0.86670000  0.89000000  0.54360000  1.0 -0.3392765611
N  N5  1  0.36030000  0.59520000  0.54505000  1.0 -0.2800999025
N  N6  1  0.35070000  0.38830000  0.54690000  1.0 -0.2800999025
N  N7  1  0.21390000  0.49790000  0.48667000  1.0 -0.1302873842
N  N8  1  0.18550000  0.40450000  0.55600000  1.0 -0.2800999025
N  N9  1  0.19650000  0.60830000  0.55370000  1.0 -0.2897300511
N  N10  1  0.68770000  0.87910000  0.55460000  1.0 -0.3492142051
N  N11  1  0.85580000  0.12220000  0.54560000  1.0 -0.3492142051
N  N12  1  0.67780000  0.10310000  0.55760000  1.0 -0.3492142051
N  N13  1  0.66430000  0.00050000  0.88464000  1.0 -0.1302873842
N  N14  1  0.15310000  0.00160000  0.37871000  1.0 -0.2079948015
N  N15  1  0.29420000  0.99750000  0.51931000  1.0 -0.2079948015
N  N16  1  0.13330000  0.39000000  0.95640000  1.0 -0.3392765611
N  N17  1  0.63970000  0.09520000  0.95495000  1.0 -0.2800999025
N  N18  1  0.64930000  0.88830000  0.95310000  1.0 -0.2800999025
N  N19  1  0.78610000  0.99790000  0.01333000  1.0 -0.1302873842
N  N20  1  0.81450000  0.90450000  0.94400000  1.0 -0.2800999025
N  N21  1  0.80350000  0.10830000  0.94630000  1.0 -0.2897300511
N  N22  1  0.31230000  0.37910000  0.94540000  1.0 -0.3492142051
N  N23  1  0.14420000  0.62220000  0.95440000  1.0 -0.3492142051
N  N24  1  0.32220000  0.60310000  0.94240000  1.0 -0.3492142051
N  N25  1  0.66430000  0.49950000  0.38464000  1.0 -0.1302873842
N  N26  1  0.15310000  0.49840000  0.87871000  1.0 -0.2079948015
N  N27  1  0.29420000  0.50250000  0.01931000  1.0 -0.2079948015
N  N28  1  0.13330000  0.11000000  0.45640000  1.0 -0.3392765611
N  N29  1  0.63970000  0.40480000  0.45495000  1.0 -0.2800999025
N  N30  1  0.64930000  0.61170000  0.45310000  1.0 -0.2800999025
N  N31  1  0.78610000  0.50210000  0.51333000  1.0 -0.1302873842
N  N32  1  0.81450000  0.59550000  0.44400000  1.0 -0.2800999025
N  N33  1  0.80350000  0.39170000  0.44630000  1.0 -0.2897300511
N  N34  1  0.31230000  0.12090000  0.44540000  1.0 -0.3492142051
N  N35  1  0.14420000  0.87780000  0.45440000  1.0 -0.3492142051
N  N36  1  0.32220000  0.89690000  0.44240000  1.0 -0.3492142051
N  N37  1  0.33570000  0.99950000  0.11536000  1.0 -0.1302873842
N  N38  1  0.84690000  0.99840000  0.62129000  1.0 -0.2079948015
N  N39  1  0.70580000  0.00250000  0.48069000  1.0 -0.2079948015
N  N40  1  0.86670000  0.61000000  0.04360000  1.0 -0.3392765611
N  N41  1  0.36030000  0.90480000  0.04505000  1.0 -0.2800999025
N  N42  1  0.35070000  0.11170000  0.04690000  1.0 -0.2800999025
N  N43  1  0.21390000  0.00210000  0.98667000  1.0 -0.1302873842
N  N44  1  0.18550000  0.09550000  0.05600000  1.0 -0.2800999025
N  N45  1  0.19650000  0.89170000  0.05370000  1.0 -0.2897300511
N  N46  1  0.68770000  0.62090000  0.05460000  1.0 -0.3492142051
N  N47  1  0.85580000  0.37780000  0.04560000  1.0 -0.3492142051
N  N48  1  0.67780000  0.39690000  0.05760000  1.0 -0.3492142051
