# DDEC6 charges by PACMAN v1.1 (https://github.com/mtap-research/PACMAN-charge/)
data_XAMHOM01_ASR_pacman
_symmetry_space_group_name_H-M   'P 1'
_cell_length_a   15.68870000
_cell_length_b   13.16120000
_cell_length_c   16.37150000
_cell_angle_alpha   90.00000000
_cell_angle_beta   98.86700000
_cell_angle_gamma   90.00000000
_symmetry_Int_Tables_number   1
_chemical_formula_structural   FeAg2H14(C4N)6
_chemical_formula_sum   'Fe4 Ag8 H56 C96 N24'
_cell_volume   3340.02193196
_cell_formula_units_Z   4
loop_
 _symmetry_equiv_pos_site_id
 _symmetry_equiv_pos_as_xyz
  1  'x, y, z'
loop_
 _atom_site_type_symbol
 _atom_site_label
 _atom_site_symmetry_multiplicity
 _atom_site_fract_x
 _atom_site_fract_y
 _atom_site_fract_z
 _atom_site_occupancy
 _atom_site_charge
Fe  Fe1  1  0.60127000  0.50012000  0.77619000  1.0 0.8027872178
Fe  Fe2  1  0.39873000  0.00012000  0.72381000  1.0 0.8027872178
Fe  Fe3  1  0.39873000  0.49988000  0.22381000  1.0 0.8027872178
Fe  Fe4  1  0.60127000  0.99988000  0.27619000  1.0 0.8027872178
Ag  Ag1  1  0.59549000  0.74197000  0.51973000  1.0 0.1407635814
Ag  Ag2  1  0.59658000  0.26914000  0.03804000  1.0 0.1407635814
Ag  Ag3  1  0.40451000  0.24197000  0.98027000  1.0 0.1407635814
Ag  Ag4  1  0.40342000  0.76914000  0.46196000  1.0 0.1407635814
Ag  Ag5  1  0.40451000  0.25803000  0.48027000  1.0 0.1407635814
Ag  Ag6  1  0.40342000  0.73086000  0.96196000  1.0 0.1458728496
Ag  Ag7  1  0.59549000  0.75803000  0.01973000  1.0 0.1407635814
Ag  Ag8  1  0.59658000  0.23086000  0.53804000  1.0 0.1407635814
H  H1  1  0.45580000  0.34960000  0.79440000  1.0 0.1096761489
H  H2  1  0.31050000  0.34570000  0.80300000  1.0 0.1211016335
H  H3  1  0.29980000  0.64690000  0.75630000  1.0 0.1332574893
H  H4  1  0.44660000  0.64480000  0.75350000  1.0 0.1211016335
H  H5  1  0.15990000  0.55700000  0.67070000  1.0 0.1211016335
H  H6  1  0.01100000  0.55680000  0.67010000  1.0 0.1211016335
H  H7  1  0.97770000  0.42430000  0.92780000  1.0 0.0991037521
H  H8  1  0.07060000  0.37450000  0.04320000  1.0 0.1096761489
H  H9  1  0.21980000  0.38160000  0.04560000  1.0 0.1096761489
H  H10  1  0.27600000  0.43280000  0.93060000  1.0 0.1096761489
H  H11  1  0.89960000  0.64870000  0.75970000  1.0 0.1407635814
H  H12  1  0.75250000  0.64780000  0.75940000  1.0 0.1096761489
H  H13  1  0.75260000  0.35360000  0.79440000  1.0 0.1096761489
H  H14  1  0.90010000  0.34590000  0.79880000  1.0 0.1332574893
H  H15  1  0.54420000  0.84960000  0.70560000  1.0 0.1096761489
H  H16  1  0.68950000  0.84570000  0.69700000  1.0 0.1211016335
H  H17  1  0.70020000  0.14690000  0.74370000  1.0 0.1332574893
H  H18  1  0.55340000  0.14480000  0.74650000  1.0 0.1211016335
H  H19  1  0.84010000  0.05700000  0.82930000  1.0 0.1211016335
H  H20  1  0.98900000  0.05680000  0.82990000  1.0 0.1211016335
H  H21  1  0.02230000  0.92430000  0.57220000  1.0 0.1096761489
H  H22  1  0.92940000  0.87450000  0.45680000  1.0 0.1096761489
H  H23  1  0.78020000  0.88160000  0.45440000  1.0 0.1096761489
H  H24  1  0.72400000  0.93280000  0.56940000  1.0 0.1096761489
H  H25  1  0.10040000  0.14870000  0.74030000  1.0 0.1407635814
H  H26  1  0.24750000  0.14780000  0.74060000  1.0 0.1096761489
H  H27  1  0.24740000  0.85360000  0.70560000  1.0 0.1096761489
H  H28  1  0.09990000  0.84590000  0.70120000  1.0 0.1332574893
H  H29  1  0.54420000  0.65040000  0.20560000  1.0 0.1096761489
H  H30  1  0.68950000  0.65430000  0.19700000  1.0 0.1211016335
H  H31  1  0.70020000  0.35310000  0.24370000  1.0 0.1332574893
H  H32  1  0.55340000  0.35520000  0.24650000  1.0 0.1211016335
H  H33  1  0.84010000  0.44300000  0.32930000  1.0 0.1211016335
H  H34  1  0.98900000  0.44320000  0.32990000  1.0 0.1211016335
H  H35  1  0.02230000  0.57570000  0.07220000  1.0 0.1096761489
H  H36  1  0.92940000  0.62550000  0.95680000  1.0 0.1096761489
H  H37  1  0.78020000  0.61840000  0.95440000  1.0 0.1096761489
H  H38  1  0.72400000  0.56720000  0.06940000  1.0 0.1096761489
H  H39  1  0.10040000  0.35130000  0.24030000  1.0 0.1407635814
H  H40  1  0.24750000  0.35220000  0.24060000  1.0 0.1096761489
H  H41  1  0.24740000  0.64640000  0.20560000  1.0 0.1096761489
H  H42  1  0.09990000  0.65410000  0.20120000  1.0 0.1332574893
H  H43  1  0.45580000  0.15040000  0.29440000  1.0 0.1096761489
H  H44  1  0.31050000  0.15430000  0.30300000  1.0 0.1211016335
H  H45  1  0.29980000  0.85310000  0.25630000  1.0 0.1332574893
H  H46  1  0.44660000  0.85520000  0.25350000  1.0 0.1211016335
H  H47  1  0.15990000  0.94300000  0.17070000  1.0 0.1211016335
H  H48  1  0.01100000  0.94320000  0.17010000  1.0 0.1211016335
H  H49  1  0.97770000  0.07570000  0.42780000  1.0 0.0991037521
H  H50  1  0.07060000  0.12550000  0.54320000  1.0 0.1096761489
H  H51  1  0.21980000  0.11840000  0.54560000  1.0 0.1096761489
H  H52  1  0.27600000  0.06720000  0.43060000  1.0 0.1096761489
H  H53  1  0.89960000  0.85130000  0.25970000  1.0 0.1407635814
H  H54  1  0.75250000  0.85220000  0.25940000  1.0 0.1096761489
H  H55  1  0.75260000  0.14640000  0.29440000  1.0 0.1096761489
H  H56  1  0.90010000  0.15410000  0.29880000  1.0 0.1332574893
C  C1  1  0.58856000  0.65610000  0.62410000  1.0 -0.0097819621
C  C2  1  0.59167000  0.32300000  0.63920000  1.0 -0.0025564559
C  C3  1  0.61060000  0.35330000  0.93420000  1.0 -0.0097819621
C  C4  1  0.60400000  0.66770000  0.91780000  1.0 0.001974443
C  C5  1  0.42379000  0.41110000  0.78742000  1.0 0.092728679
C  C6  1  0.33693000  0.40820000  0.79212000  1.0 -0.2023886353
C  C7  1  0.28799000  0.49630000  0.78099000  1.0 0.1211016335
C  C8  1  0.33078000  0.58490000  0.76533000  1.0 -0.2023886353
C  C9  1  0.41840000  0.58300000  0.76295000  1.0 0.0991037521
C  C10  1  0.19362000  0.49630000  0.78390000  1.0 0.0140162926
C  C11  1  0.13760000  0.53180000  0.71750000  1.0 -0.1485235584
C  C12  1  0.04820000  0.53170000  0.71710000  1.0 -0.1424351451
C  C13  1  0.01380000  0.49620000  0.78320000  1.0 0.001974443
C  C14  1  0.06920000  0.45930000  0.85462000  1.0 0.0330322455
C  C15  1  0.03810000  0.42630000  0.92720000  1.0 -0.1581011381
C  C16  1  0.09310000  0.39730000  0.99570000  1.0 -0.0963313342
C  C17  1  0.18210000  0.40070000  0.99700000  1.0 -0.0895837158
C  C18  1  0.21520000  0.43110000  0.92890000  1.0 -0.1485235584
C  C19  1  0.16040000  0.46060000  0.85504000  1.0 0.0358707267
C  C20  1  0.91803000  0.49720000  0.78087000  1.0 0.1211016335
C  C21  1  0.87120000  0.58670000  0.76800000  1.0 -0.2065676306
C  C22  1  0.78300000  0.58530000  0.76740000  1.0 0.092728679
C  C23  1  0.78300000  0.41470000  0.78808000  1.0 0.092728679
C  C24  1  0.87140000  0.40940000  0.79050000  1.0 -0.2065676306
C  C25  1  0.41144000  0.15610000  0.87590000  1.0 -0.0097819621
C  C26  1  0.40833000  0.82300000  0.86080000  1.0 -0.0025564559
C  C27  1  0.38940000  0.85330000  0.56580000  1.0 -0.0097819621
C  C28  1  0.39600000  0.16770000  0.58220000  1.0 0.001974443
C  C29  1  0.57621000  0.91110000  0.71258000  1.0 0.092728679
C  C30  1  0.66307000  0.90820000  0.70788000  1.0 -0.2023886353
C  C31  1  0.71201000  0.99630000  0.71901000  1.0 0.1211016335
C  C32  1  0.66922000  0.08490000  0.73467000  1.0 -0.2023886353
C  C33  1  0.58160000  0.08300000  0.73705000  1.0 0.0991037521
C  C34  1  0.80638000  0.99630000  0.71610000  1.0 0.0140162926
C  C35  1  0.86240000  0.03180000  0.78250000  1.0 -0.1485235584
C  C36  1  0.95180000  0.03170000  0.78290000  1.0 -0.1424351451
C  C37  1  0.98620000  0.99620000  0.71680000  1.0 0.001974443
C  C38  1  0.93080000  0.95930000  0.64538000  1.0 0.0330322455
C  C39  1  0.96190000  0.92630000  0.57280000  1.0 -0.1581011381
C  C40  1  0.90690000  0.89730000  0.50430000  1.0 -0.0963313342
C  C41  1  0.81790000  0.90070000  0.50300000  1.0 -0.0895837158
C  C42  1  0.78480000  0.93110000  0.57110000  1.0 -0.1485235584
C  C43  1  0.83960000  0.96060000  0.64496000  1.0 0.0358707267
C  C44  1  0.08197000  0.99720000  0.71913000  1.0 0.1211016335
C  C45  1  0.12880000  0.08670000  0.73200000  1.0 -0.2065676306
C  C46  1  0.21700000  0.08530000  0.73260000  1.0 0.092728679
C  C47  1  0.21700000  0.91470000  0.71192000  1.0 0.092728679
C  C48  1  0.12860000  0.90940000  0.70950000  1.0 -0.2065676306
C  C49  1  0.41144000  0.34390000  0.37590000  1.0 -0.0097819621
C  C50  1  0.40833000  0.67700000  0.36080000  1.0 -0.0025564559
C  C51  1  0.38940000  0.64670000  0.06580000  1.0 -0.0097819621
C  C52  1  0.39600000  0.33230000  0.08220000  1.0 0.001974443
C  C53  1  0.57621000  0.58890000  0.21258000  1.0 0.092728679
C  C54  1  0.66307000  0.59180000  0.20788000  1.0 -0.2023886353
C  C55  1  0.71201000  0.50370000  0.21901000  1.0 0.1211016335
C  C56  1  0.66922000  0.41510000  0.23467000  1.0 -0.2023886353
C  C57  1  0.58160000  0.41700000  0.23705000  1.0 0.0991037521
C  C58  1  0.80638000  0.50370000  0.21610000  1.0 0.0140162926
C  C59  1  0.86240000  0.46820000  0.28250000  1.0 -0.1485235584
C  C60  1  0.95180000  0.46830000  0.28290000  1.0 -0.1424351451
C  C61  1  0.98620000  0.50380000  0.21680000  1.0 0.001974443
C  C62  1  0.93080000  0.54070000  0.14538000  1.0 0.0330322455
C  C63  1  0.96190000  0.57370000  0.07280000  1.0 -0.1581011381
C  C64  1  0.90690000  0.60270000  0.00430000  1.0 -0.0963313342
C  C65  1  0.81790000  0.59930000  0.00300000  1.0 -0.0895837158
C  C66  1  0.78480000  0.56890000  0.07110000  1.0 -0.1485235584
C  C67  1  0.83960000  0.53940000  0.14496000  1.0 0.0358707267
C  C68  1  0.08197000  0.50280000  0.21913000  1.0 0.1211016335
C  C69  1  0.12880000  0.41330000  0.23200000  1.0 -0.2065676306
C  C70  1  0.21700000  0.41470000  0.23260000  1.0 0.092728679
C  C71  1  0.21700000  0.58530000  0.21192000  1.0 0.092728679
C  C72  1  0.12860000  0.59060000  0.20950000  1.0 -0.2065676306
C  C73  1  0.58856000  0.84390000  0.12410000  1.0 -0.0097819621
C  C74  1  0.59167000  0.17700000  0.13920000  1.0 -0.0025564559
C  C75  1  0.61060000  0.14670000  0.43420000  1.0 -0.0097819621
C  C76  1  0.60400000  0.83230000  0.41780000  1.0 0.001974443
C  C77  1  0.42379000  0.08890000  0.28742000  1.0 0.092728679
C  C78  1  0.33693000  0.09180000  0.29212000  1.0 -0.2023886353
C  C79  1  0.28799000  0.00370000  0.28099000  1.0 0.1211016335
C  C80  1  0.33078000  0.91510000  0.26533000  1.0 -0.2023886353
C  C81  1  0.41840000  0.91700000  0.26295000  1.0 0.0991037521
C  C82  1  0.19362000  0.00370000  0.28390000  1.0 0.0140162926
C  C83  1  0.13760000  0.96820000  0.21750000  1.0 -0.1485235584
C  C84  1  0.04820000  0.96830000  0.21710000  1.0 -0.1424351451
C  C85  1  0.01380000  0.00380000  0.28320000  1.0 0.001974443
C  C86  1  0.06920000  0.04070000  0.35462000  1.0 0.0330322455
C  C87  1  0.03810000  0.07370000  0.42720000  1.0 -0.1581011381
C  C88  1  0.09310000  0.10270000  0.49570000  1.0 -0.0963313342
C  C89  1  0.18210000  0.09930000  0.49700000  1.0 -0.0895837158
C  C90  1  0.21520000  0.06890000  0.42890000  1.0 -0.1485235584
C  C91  1  0.16040000  0.03940000  0.35504000  1.0 0.0358707267
C  C92  1  0.91803000  0.00280000  0.28087000  1.0 0.1211016335
C  C93  1  0.87120000  0.91330000  0.26800000  1.0 -0.2065676306
C  C94  1  0.78300000  0.91470000  0.26740000  1.0 0.092728679
C  C95  1  0.78300000  0.08530000  0.28808000  1.0 0.092728679
C  C96  1  0.87140000  0.09060000  0.29050000  1.0 -0.2065676306
N  N1  1  0.46538000  0.49747000  0.77337000  1.0 -0.2215161402
N  N2  1  0.73822000  0.50120000  0.77728000  1.0 -0.2215161402
N  N3  1  0.59204000  0.38002000  0.69216000  1.0 -0.3437749412
N  N4  1  0.58818000  0.60390000  0.67991000  1.0 -0.3437749412
N  N5  1  0.60822000  0.61670000  0.86229000  1.0 -0.3467225647
N  N6  1  0.61437000  0.39890000  0.87565000  1.0 -0.3437749412
N  N7  1  0.53462000  0.99747000  0.72663000  1.0 -0.2215161402
N  N8  1  0.26178000  0.00120000  0.72272000  1.0 -0.2215161402
N  N9  1  0.40796000  0.88002000  0.80784000  1.0 -0.3437749412
N  N10  1  0.41182000  0.10390000  0.82009000  1.0 -0.3437749412
N  N11  1  0.39178000  0.11670000  0.63771000  1.0 -0.3467225647
N  N12  1  0.38563000  0.89890000  0.62435000  1.0 -0.3437749412
N  N13  1  0.53462000  0.50253000  0.22663000  1.0 -0.2215161402
N  N14  1  0.26178000  0.49880000  0.22272000  1.0 -0.2215161402
N  N15  1  0.40796000  0.61998000  0.30784000  1.0 -0.3467225647
N  N16  1  0.41182000  0.39610000  0.32009000  1.0 -0.3437749412
N  N17  1  0.39178000  0.38330000  0.13771000  1.0 -0.3467225647
N  N18  1  0.38563000  0.60110000  0.12435000  1.0 -0.3437749412
N  N19  1  0.46538000  0.00253000  0.27337000  1.0 -0.2215161402
N  N20  1  0.73822000  0.99880000  0.27728000  1.0 -0.2215161402
N  N21  1  0.59204000  0.11998000  0.19216000  1.0 -0.3467225647
N  N22  1  0.58818000  0.89610000  0.17991000  1.0 -0.3437749412
N  N23  1  0.60822000  0.88330000  0.36229000  1.0 -0.3467225647
N  N24  1  0.61437000  0.10110000  0.37565000  1.0 -0.3437749412
