# DDEC6 charges by PACMAN v1.1 (https://github.com/mtap-research/PACMAN-charge/)
data_XANZAQ03_ASR_pacman
_symmetry_space_group_name_H-M   'P 1'
_cell_length_a   13.58210000
_cell_length_b   13.58210000
_cell_length_c   13.58210000
_cell_angle_alpha   148.98700000
_cell_angle_beta   114.47600000
_cell_angle_gamma   74.25450000
_symmetry_Int_Tables_number   1
_chemical_formula_structural   CuH4C14N6Cl
_chemical_formula_sum   'Cu2 H8 C28 N12 Cl2'
_cell_volume   1156.04691490
_cell_formula_units_Z   2
loop_
 _symmetry_equiv_pos_site_id
 _symmetry_equiv_pos_as_xyz
  1  'x, y, z'
loop_
 _atom_site_type_symbol
 _atom_site_label
 _atom_site_symmetry_multiplicity
 _atom_site_fract_x
 _atom_site_fract_y
 _atom_site_fract_z
 _atom_site_occupancy
 _atom_site_charge
Cu  Cu1  1  0.00000000  0.50000000  0.00000000  1.0 0.6339410161
Cu  Cu2  1  0.00000000  0.00000000  0.50000000  1.0 0.6339410161
H  H1  1  0.00040000  0.60080000  0.85800000  1.0 0.1314368396
H  H2  1  0.75720000  0.89920000  0.39960000  1.0 0.1314368396
H  H3  1  0.24280000  0.64240000  0.14200000  1.0 0.1314368396
H  H4  1  0.99960000  0.85760000  0.60040000  1.0 0.1314368396
H  H5  1  0.99960000  0.39920000  0.14200000  1.0 0.1314368396
H  H6  1  0.24280000  0.10080000  0.60040000  1.0 0.1314368396
H  H7  1  0.75720000  0.35760000  0.85800000  1.0 0.1314368396
H  H8  1  0.00040000  0.14240000  0.39960000  1.0 0.1314368396
C  C1  1  0.00150000  0.71280000  0.99150000  1.0 0.1314368396
C  C2  1  0.77870000  0.78720000  0.28870000  1.0 0.1314368396
C  C3  1  0.22130000  0.51000000  0.00850000  1.0 0.1314368396
C  C4  1  0.99850000  0.99000000  0.71130000  1.0 0.1314368396
C  C5  1  0.99850000  0.28720000  0.00850000  1.0 0.1314368396
C  C6  1  0.22130000  0.21280000  0.71130000  1.0 0.1314368396
C  C7  1  0.77870000  0.49000000  0.99150000  1.0 0.1314368396
C  C8  1  0.00150000  0.01000000  0.28870000  1.0 0.1314368396
C  C9  1  0.99920000  0.94730000  0.05190000  1.0 0.1170001914
C  C10  1  0.60460000  0.55270000  0.05190000  1.0 0.1170001914
C  C11  1  0.39540000  0.44730000  0.94810000  1.0 0.1072399457
C  C12  1  0.00080000  0.05270000  0.94810000  1.0 0.1072399457
C  C13  1  0.08022000  0.09990000  0.18632000  1.0 -0.0471182056
C  C14  1  0.58642000  0.40010000  0.98032000  1.0 -0.0420820155
C  C15  1  0.41358000  0.39390000  0.81368000  1.0 -0.0420820155
C  C16  1  0.91978000  0.10610000  0.01968000  1.0 -0.0420820155
C  C17  1  0.91978000  0.90010000  0.81368000  1.0 -0.0420820155
C  C18  1  0.41358000  0.59990000  0.01968000  1.0 -0.0420820155
C  C19  1  0.58642000  0.60610000  0.18632000  1.0 -0.0471182056
C  C20  1  0.08022000  0.89390000  0.98032000  1.0 -0.0471182056
C  C21  1  0.92330000  0.84660000  0.87270000  1.0 -0.0420820155
C  C22  1  0.52610000  0.65340000  0.07670000  1.0 -0.0420820155
C  C23  1  0.47390000  0.55060000  0.12730000  1.0 -0.0420820155
C  C24  1  0.07670000  0.94940000  0.92330000  1.0 -0.0420820155
C  C25  1  0.07670000  0.15340000  0.12730000  1.0 -0.0420820155
C  C26  1  0.47390000  0.34660000  0.92330000  1.0 -0.0420820155
C  C27  1  0.52610000  0.44940000  0.87270000  1.0 -0.0471182056
C  C28  1  0.92330000  0.05060000  0.07670000  1.0 -0.0420820155
N  N1  1  0.00340000  0.71970000  0.09310000  1.0 -0.1743020798
N  N2  1  0.87340000  0.78030000  0.28370000  1.0 -0.1743020798
N  N3  1  0.12660000  0.41030000  0.90690000  1.0 -0.1752401347
N  N4  1  0.99660000  0.08970000  0.71630000  1.0 -0.1752401347
N  N5  1  0.99660000  0.28030000  0.90690000  1.0 -0.1752401347
N  N6  1  0.12660000  0.21970000  0.71630000  1.0 -0.1752401347
N  N7  1  0.87340000  0.58970000  0.09310000  1.0 -0.1752401347
N  N8  1  0.00340000  0.91030000  0.28370000  1.0 -0.1743020798
N  N9  1  0.00150000  0.89340000  0.10810000  1.0 -0.0876448835
N  N10  1  0.71470000  0.60660000  0.10810000  1.0 -0.0876448835
N  N11  1  0.28530000  0.39340000  0.89190000  1.0 -0.0876448835
N  N12  1  0.99850000  0.10660000  0.89190000  1.0 -0.0845038603
Cl  Cl1  1  0.13480000  0.75000000  0.38480000  1.0 -0.6896746541
Cl  Cl2  1  0.86520000  0.25000000  0.61520000  1.0 -0.6896746541
