# DDEC6 charges by PACMAN v1.1 (https://github.com/mtap-research/PACMAN-charge/)
data_XANZAQ02_FSR_pacman
_symmetry_space_group_name_H-M   'P 1'
_cell_length_a   13.55160000
_cell_length_b   13.55160000
_cell_length_c   13.55160000
_cell_angle_alpha   148.89400000
_cell_angle_beta   118.45200000
_cell_angle_gamma   70.57150000
_symmetry_Int_Tables_number   1
_chemical_formula_structural   CuH12C14N6Cl
_chemical_formula_sum   'Cu2 H24 C28 N12 Cl2'
_cell_volume   1114.78709407
_cell_formula_units_Z   2
loop_
 _symmetry_equiv_pos_site_id
 _symmetry_equiv_pos_as_xyz
  1  'x, y, z'
loop_
 _atom_site_type_symbol
 _atom_site_label
 _atom_site_symmetry_multiplicity
 _atom_site_fract_x
 _atom_site_fract_y
 _atom_site_fract_z
 _atom_site_occupancy
 _atom_site_charge
Cu  Cu1  1  0.00000000  0.50000000  0.00000000  1.0 0.6483062098
Cu  Cu2  1  0.00000000  0.00000000  0.50000000  1.0 0.6483062098
H  H1  1  0.24570000  0.60100000  0.10310000  1.0 0.1203908541
H  H2  1  0.00210000  0.89900000  0.64470000  1.0 0.1203908541
H  H3  1  0.99790000  0.64260000  0.89690000  1.0 0.1203908541
H  H4  1  0.75430000  0.85740000  0.35530000  1.0 0.1203908541
H  H5  1  0.75430000  0.39900000  0.89690000  1.0 0.1203908541
H  H6  1  0.99790000  0.10100000  0.35530000  1.0 0.1203908541
H  H7  1  0.00210000  0.35740000  0.10310000  1.0 0.1203908541
H  H8  1  0.24570000  0.14260000  0.64470000  1.0 0.1203908541
H  H9  1  0.46630000  0.73650000  0.37080000  1.0 0.091369993
H  H10  1  0.13430000  0.76350000  0.72980000  1.0 0.091369993
H  H11  1  0.86570000  0.59550000  0.62920000  1.0 0.091369993
H  H12  1  0.53370000  0.90450000  0.27020000  1.0 0.091369993
H  H13  1  0.53370000  0.26350000  0.62920000  1.0 0.091369993
H  H14  1  0.86570000  0.23650000  0.27020000  1.0 0.091369993
H  H15  1  0.13430000  0.40450000  0.37080000  1.0 0.091369993
H  H16  1  0.46630000  0.09550000  0.72980000  1.0 0.091369993
H  H17  1  0.34480000  0.83140000  0.19240000  1.0 0.091369993
H  H18  1  0.86100000  0.66860000  0.51340000  1.0 0.091369993
H  H19  1  0.13900000  0.65240000  0.80760000  1.0 0.091369993
H  H20  1  0.65520000  0.84760000  0.48660000  1.0 0.091369993
H  H21  1  0.65520000  0.16860000  0.80760000  1.0 0.091369993
H  H22  1  0.13900000  0.33140000  0.48660000  1.0 0.091369993
H  H23  1  0.86100000  0.34760000  0.19240000  1.0 0.091369993
H  H24  1  0.34480000  0.15240000  0.51340000  1.0 0.091369993
C  C1  1  0.22376000  0.71216000  0.21380000  1.0 0.091369993
C  C2  1  0.00164000  0.78784000  0.51160000  1.0 0.091369993
C  C3  1  0.99836000  0.50996000  0.78620000  1.0 0.091369993
C  C4  1  0.77624000  0.99004000  0.48840000  1.0 0.091369993
C  C5  1  0.77624000  0.28784000  0.78620000  1.0 0.091369993
C  C6  1  0.99836000  0.21216000  0.48840000  1.0 0.091369993
C  C7  1  0.00164000  0.49004000  0.21380000  1.0 0.091369993
C  C8  1  0.22376000  0.00996000  0.51160000  1.0 0.091369993
C  C9  1  0.39510000  0.94830000  0.44680000  1.0 0.1125515143
C  C10  1  0.99850000  0.55170000  0.44680000  1.0 0.1125515143
C  C11  1  0.00150000  0.44830000  0.55320000  1.0 0.1125515143
C  C12  1  0.60490000  0.05170000  0.55320000  1.0 0.1125515143
C  C13  1  0.48130000  0.84520000  0.42690000  1.0 -0.0908644067
C  C14  1  0.08170000  0.65480000  0.63610000  1.0 -0.0908644067
C  C15  1  0.91830000  0.55440000  0.57310000  1.0 -0.0908644067
C  C16  1  0.51870000  0.94560000  0.36390000  1.0 -0.0908644067
C  C17  1  0.51870000  0.15480000  0.57310000  1.0 -0.0908644067
C  C18  1  0.91830000  0.34520000  0.36390000  1.0 -0.0908644067
C  C19  1  0.08170000  0.44560000  0.42690000  1.0 -0.0908644067
C  C20  1  0.48130000  0.05440000  0.63610000  1.0 -0.0908644067
C  C21  1  0.40890000  0.89500000  0.31450000  1.0 -0.1213803122
C  C22  1  0.91950000  0.60500000  0.51390000  1.0 -0.1213803122
C  C23  1  0.08050000  0.59440000  0.68550000  1.0 -0.1213803122
C  C24  1  0.59110000  0.90560000  0.48610000  1.0 -0.1213803122
C  C25  1  0.59110000  0.10500000  0.68550000  1.0 -0.1213803122
C  C26  1  0.08050000  0.39500000  0.48610000  1.0 -0.1213803122
C  C27  1  0.91950000  0.40560000  0.31450000  1.0 -0.1213803122
C  C28  1  0.40890000  0.09440000  0.51390000  1.0 -0.1213803122
N  N1  1  0.99961000  0.40841000  0.78040000  1.0 -0.1814662794
N  N2  1  0.87199000  0.09159000  0.59120000  1.0 -0.1814662794
N  N3  1  0.12801000  0.71921000  0.21960000  1.0 -0.1814662794
N  N4  1  0.00039000  0.78079000  0.40880000  1.0 -0.1814662794
N  N5  1  0.00039000  0.59159000  0.21960000  1.0 -0.1814662794
N  N6  1  0.12801000  0.90841000  0.40880000  1.0 -0.1814662794
N  N7  1  0.87199000  0.28079000  0.78040000  1.0 -0.1814662794
N  N8  1  0.99961000  0.21921000  0.59120000  1.0 -0.1814662794
N  N9  1  0.28640000  0.89210000  0.39430000  1.0 -0.0716494375
N  N10  1  0.00220000  0.60790000  0.39430000  1.0 -0.0716494375
N  N11  1  0.99780000  0.39210000  0.60570000  1.0 -0.0716494375
N  N12  1  0.71360000  0.10790000  0.60570000  1.0 -0.0716494375
Cl  Cl1  1  0.14232000  0.25000000  0.89232000  1.0 -0.7332697024
Cl  Cl2  1  0.85768000  0.75000000  0.10768000  1.0 -0.7332697024
