# DDEC6 charges by PACMAN v1.1 (https://github.com/mtap-research/PACMAN-charge/)
data_XANZAQ04_ASR_pacman
_symmetry_space_group_name_H-M   'P 1'
_cell_length_a   13.56700000
_cell_length_b   13.56700000
_cell_length_c   13.56700000
_cell_angle_alpha   149.58400000
_cell_angle_beta   112.19900000
_cell_angle_gamma   76.10190000
_symmetry_Int_Tables_number   1
_chemical_formula_structural   CuH12C14N6Cl
_chemical_formula_sum   'Cu2 H24 C28 N12 Cl2'
_cell_volume   1150.85578769
_cell_formula_units_Z   2
loop_
 _symmetry_equiv_pos_site_id
 _symmetry_equiv_pos_as_xyz
  1  'x, y, z'
loop_
 _atom_site_type_symbol
 _atom_site_label
 _atom_site_symmetry_multiplicity
 _atom_site_fract_x
 _atom_site_fract_y
 _atom_site_fract_z
 _atom_site_occupancy
 _atom_site_charge
Cu  Cu1  1  0.00000000  0.00000000  0.50000000  1.0 0.643610624
Cu  Cu2  1  0.00000000  0.50000000  0.00000000  1.0 0.643610624
H  H1  1  0.75620000  0.85140000  0.35300000  1.0 0.1173809668
H  H2  1  0.00160000  0.64860000  0.90480000  1.0 0.1173809668
H  H3  1  0.99840000  0.90320000  0.64700000  1.0 0.1173809668
H  H4  1  0.24380000  0.59680000  0.09520000  1.0 0.1173809668
H  H5  1  0.24380000  0.14860000  0.64700000  1.0 0.1173809668
H  H6  1  0.99840000  0.35140000  0.09520000  1.0 0.1173809668
H  H7  1  0.00160000  0.09680000  0.35300000  1.0 0.1173809668
H  H8  1  0.75620000  0.40320000  0.90480000  1.0 0.1173809668
H  H9  1  0.37850000  0.74610000  0.15820000  1.0 0.0969340795
H  H10  1  0.91210000  0.75390000  0.63240000  1.0 0.0969340795
H  H11  1  0.08790000  0.72030000  0.84180000  1.0 0.0969340795
H  H12  1  0.62150000  0.77970000  0.36760000  1.0 0.0969340795
H  H13  1  0.62150000  0.25390000  0.84180000  1.0 0.0969340795
H  H14  1  0.08790000  0.24610000  0.36760000  1.0 0.0969340795
H  H15  1  0.91210000  0.27970000  0.15820000  1.0 0.0969340795
H  H16  1  0.37850000  0.22030000  0.63240000  1.0 0.0969340795
H  H17  1  0.55540000  0.84600000  0.24600000  1.0 0.0899971955
H  H18  1  0.90000000  0.65400000  0.70940000  1.0 0.0899971955
H  H19  1  0.10000000  0.80940000  0.75400000  1.0 0.0899971955
H  H20  1  0.44460000  0.69060000  0.29060000  1.0 0.0899971955
H  H21  1  0.44460000  0.15400000  0.75400000  1.0 0.0899971955
H  H22  1  0.10000000  0.34600000  0.29060000  1.0 0.0899971955
H  H23  1  0.90000000  0.19060000  0.24600000  1.0 0.0899971955
H  H24  1  0.55540000  0.30940000  0.70940000  1.0 0.0899971955
C  C1  1  0.77760000  0.98650000  0.48850000  1.0 0.0899971955
C  C2  1  0.00200000  0.51350000  0.79110000  1.0 0.0899971955
C  C3  1  0.99800000  0.78910000  0.51150000  1.0 0.0899971955
C  C4  1  0.22240000  0.71090000  0.20890000  1.0 0.0899971955
C  C5  1  0.22240000  0.01350000  0.51150000  1.0 0.0899971955
C  C6  1  0.99800000  0.48650000  0.20890000  1.0 0.0899971955
C  C7  1  0.00200000  0.21090000  0.48850000  1.0 0.0899971955
C  C8  1  0.77760000  0.28910000  0.79110000  1.0 0.0899971955
C  C9  1  0.60590000  0.05210000  0.55380000  1.0 0.1125165199
C  C10  1  0.00170000  0.44790000  0.55380000  1.0 0.1125165199
C  C11  1  0.99830000  0.55210000  0.44620000  1.0 0.1125165199
C  C12  1  0.39410000  0.94790000  0.44620000  1.0 0.1125165199
C  C13  1  0.42760000  0.85390000  0.29970000  1.0 -0.1091731024
C  C14  1  0.94580000  0.64610000  0.57370000  1.0 -0.1091731024
C  C15  1  0.05420000  0.62790000  0.70030000  1.0 -0.1091731024
C  C16  1  0.57240000  0.87210000  0.42630000  1.0 -0.1091731024
C  C17  1  0.57240000  0.14610000  0.70030000  1.0 -0.1091731024
C  C18  1  0.05420000  0.35390000  0.42630000  1.0 -0.1091731024
C  C19  1  0.94580000  0.37210000  0.29970000  1.0 -0.1091731024
C  C20  1  0.42760000  0.12790000  0.57370000  1.0 -0.1091731024
C  C21  1  0.53290000  0.90560000  0.34730000  1.0 -0.1091731024
C  C22  1  0.94170000  0.59440000  0.62730000  1.0 -0.1091731024
C  C23  1  0.05830000  0.68560000  0.65270000  1.0 -0.1091731024
C  C24  1  0.46710000  0.81440000  0.37270000  1.0 -0.1091731024
C  C25  1  0.46710000  0.09440000  0.65270000  1.0 -0.1091731024
C  C26  1  0.05830000  0.40560000  0.37270000  1.0 -0.1091731024
C  C27  1  0.94170000  0.31440000  0.34730000  1.0 -0.1091731024
C  C28  1  0.53290000  0.18560000  0.62730000  1.0 -0.1091731024
N  N1  1  0.87230000  0.08650000  0.59140000  1.0 -0.1819515775
N  N2  1  0.00490000  0.41350000  0.78580000  1.0 -0.1819515775
N  N3  1  0.99510000  0.78090000  0.40860000  1.0 -0.1819515775
N  N4  1  0.12770000  0.71910000  0.21420000  1.0 -0.1819515775
N  N5  1  0.12770000  0.91350000  0.40860000  1.0 -0.1819515775
N  N6  1  0.99510000  0.58650000  0.21420000  1.0 -0.1819515775
N  N7  1  0.00490000  0.21910000  0.59140000  1.0 -0.1819515775
N  N8  1  0.87230000  0.28090000  0.78580000  1.0 -0.1819515775
N  N9  1  0.71350000  0.10690000  0.60660000  1.0 -0.0633417607
N  N10  1  0.99970000  0.39310000  0.60660000  1.0 -0.0633417607
N  N11  1  0.00030000  0.60690000  0.39340000  1.0 -0.0633417607
N  N12  1  0.28650000  0.89310000  0.39340000  1.0 -0.0633417607
Cl  Cl1  1  0.12960000  0.25000000  0.87960000  1.0 -0.7180067623
Cl  Cl2  1  0.87040000  0.75000000  0.12040000  1.0 -0.7180067623
