# DDEC6 charges by PACMAN v1.1 (https://github.com/mtap-research/PACMAN-charge/)
data_XARPAK_ion_pacman
_symmetry_space_group_name_H-M   'P 1'
_cell_length_a   6.68630000
_cell_length_b   33.34000000
_cell_length_c   11.32650000
_cell_angle_alpha   90.00000000
_cell_angle_beta   107.18100000
_cell_angle_gamma   90.00000000
_symmetry_Int_Tables_number   1
_chemical_formula_structural   CuH13C17N2ClO9
_chemical_formula_sum   'Cu4 H52 C68 N8 Cl4 O36'
_cell_volume   2412.24646580
_cell_formula_units_Z   4
loop_
 _symmetry_equiv_pos_site_id
 _symmetry_equiv_pos_as_xyz
  1  'x, y, z'
loop_
 _atom_site_type_symbol
 _atom_site_label
 _atom_site_symmetry_multiplicity
 _atom_site_fract_x
 _atom_site_fract_y
 _atom_site_fract_z
 _atom_site_occupancy
 _atom_site_charge
Cu  Cu1  1  0.00000000  0.00000000  0.50000000  1.0 0.8958534063
Cu  Cu2  1  0.00000000  0.50000000  0.00000000  1.0 0.8958534063
Cu  Cu3  1  0.50000000  0.00000000  0.50000000  1.0 0.8958534063
Cu  Cu4  1  0.50000000  0.50000000  0.00000000  1.0 0.8958534063
H  H1  1  0.80200000  0.97680000  0.64800000  1.0 0.3630963178
H  H2  1  0.19800000  0.47680000  0.85200000  1.0 0.3630963178
H  H3  1  0.19800000  0.02320000  0.35200000  1.0 0.3630963178
H  H4  1  0.80200000  0.52320000  0.14800000  1.0 0.3630963178
H  H5  1  0.75900000  0.01620000  0.68100000  1.0 0.3885545345
H  H6  1  0.24100000  0.51620000  0.81900000  1.0 0.3885545345
H  H7  1  0.24100000  0.98380000  0.31900000  1.0 0.3885545345
H  H8  1  0.75900000  0.48380000  0.18100000  1.0 0.3885545345
H  H9  1  0.50000000  0.74140000  0.34150000  1.0 0.1208167658
H  H10  1  0.50000000  0.24140000  0.15850000  1.0 0.1208167658
H  H11  1  0.50000000  0.25860000  0.65850000  1.0 0.1208167658
H  H12  1  0.50000000  0.75860000  0.84150000  1.0 0.1208167658
H  H13  1  0.88520000  0.77390000  0.14650000  1.0 0.1414062044
H  H14  1  0.11480000  0.27390000  0.35350000  1.0 0.1414062044
H  H15  1  0.11480000  0.22610000  0.85350000  1.0 0.1414062044
H  H16  1  0.88520000  0.72610000  0.64650000  1.0 0.1414062044
H  H17  1  0.78090000  0.70360000  0.09260000  1.0 0.1414062044
H  H18  1  0.21910000  0.20360000  0.40740000  1.0 0.1414062044
H  H19  1  0.21910000  0.29640000  0.90740000  1.0 0.1414062044
H  H20  1  0.78090000  0.79640000  0.59260000  1.0 0.1414062044
H  H21  1  0.01370000  0.81850000  0.34690000  1.0 0.1414062044
H  H22  1  0.98630000  0.31850000  0.15310000  1.0 0.1414062044
H  H23  1  0.98630000  0.18150000  0.65310000  1.0 0.1414062044
H  H24  1  0.01370000  0.68150000  0.84690000  1.0 0.1414062044
H  H25  1  0.01400000  0.88520000  0.40800000  1.0 0.1285887024
H  H26  1  0.98600000  0.38520000  0.09200000  1.0 0.1285887024
H  H27  1  0.98600000  0.11480000  0.59200000  1.0 0.1285887024
H  H28  1  0.01400000  0.61480000  0.90800000  1.0 0.1285887024
H  H29  1  0.39020000  0.88100000  0.35140000  1.0 0.1208167658
H  H30  1  0.60980000  0.38100000  0.14860000  1.0 0.1208167658
H  H31  1  0.60980000  0.11900000  0.64860000  1.0 0.1208167658
H  H32  1  0.39020000  0.61900000  0.85140000  1.0 0.1208167658
H  H33  1  0.38560000  0.81420000  0.28640000  1.0 0.1285887024
H  H34  1  0.61440000  0.31420000  0.21360000  1.0 0.1285887024
H  H35  1  0.61440000  0.18580000  0.71360000  1.0 0.1285887024
H  H36  1  0.38560000  0.68580000  0.78640000  1.0 0.1285887024
H  H37  1  0.71620000  0.63740000  0.17090000  1.0 0.1285887024
H  H38  1  0.28380000  0.13740000  0.32910000  1.0 0.1285887024
H  H39  1  0.28380000  0.36260000  0.82910000  1.0 0.1285887024
H  H40  1  0.71620000  0.86260000  0.67090000  1.0 0.1285887024
H  H41  1  0.52660000  0.57810000  0.14640000  1.0 0.1208167658
H  H42  1  0.47340000  0.07810000  0.35360000  1.0 0.1208167658
H  H43  1  0.47340000  0.42190000  0.85360000  1.0 0.1208167658
H  H44  1  0.52660000  0.92190000  0.64640000  1.0 0.1208167658
H  H45  1  0.06530000  0.63600000  0.24280000  1.0 0.1208167658
H  H46  1  0.93470000  0.13600000  0.25720000  1.0 0.1208167658
H  H47  1  0.93470000  0.36400000  0.75720000  1.0 0.1208167658
H  H48  1  0.06530000  0.86400000  0.74280000  1.0 0.1208167658
H  H49  1  0.24670000  0.69630000  0.25280000  1.0 0.1208167658
H  H50  1  0.75330000  0.19630000  0.24720000  1.0 0.1208167658
H  H51  1  0.75330000  0.30370000  0.74720000  1.0 0.1208167658
H  H52  1  0.24670000  0.80370000  0.75280000  1.0 0.1208167658
C  C1  1  0.58230000  0.74066000  0.28600000  1.0 0.0803385028
C  C2  1  0.41770000  0.24066000  0.21400000  1.0 0.0803385028
C  C3  1  0.41770000  0.25934000  0.71400000  1.0 0.0803385028
C  C4  1  0.58230000  0.75934000  0.78600000  1.0 0.0803385028
C  C5  1  0.79410000  0.75834000  0.17840000  1.0 -0.0444760932
C  C6  1  0.20590000  0.25834000  0.32160000  1.0 -0.0444760932
C  C7  1  0.20590000  0.24166000  0.82160000  1.0 -0.0444760932
C  C8  1  0.79410000  0.74166000  0.67840000  1.0 -0.0444760932
C  C9  1  0.73790000  0.72012000  0.14900000  1.0 -0.1018750663
C  C10  1  0.26210000  0.22012000  0.35100000  1.0 -0.1018750663
C  C11  1  0.26210000  0.27988000  0.85100000  1.0 -0.1018750663
C  C12  1  0.73790000  0.77988000  0.64900000  1.0 -0.1018750663
C  C13  1  0.70060000  0.81093000  0.30900000  1.0 0.1718499871
C  C14  1  0.29940000  0.31093000  0.19100000  1.0 0.1718499871
C  C15  1  0.29940000  0.18907000  0.69100000  1.0 0.1718499871
C  C16  1  0.70060000  0.68907000  0.80900000  1.0 0.1718499871
C  C17  1  0.88650000  0.83130000  0.34610000  1.0 -0.1662742583
C  C18  1  0.11350000  0.33130000  0.15390000  1.0 -0.1662742583
C  C19  1  0.11350000  0.16870000  0.65390000  1.0 -0.1662742583
C  C20  1  0.88650000  0.66870000  0.84610000  1.0 -0.1662742583
C  C21  1  0.88600000  0.87078000  0.38230000  1.0 -0.0833042277
C  C22  1  0.11400000  0.37078000  0.11770000  1.0 -0.0833042277
C  C23  1  0.11400000  0.12922000  0.61770000  1.0 -0.0833042277
C  C24  1  0.88600000  0.62922000  0.88230000  1.0 -0.0833042277
C  C25  1  0.70120000  0.88958000  0.38170000  1.0 -0.0230595921
C  C26  1  0.29880000  0.38958000  0.11830000  1.0 -0.0230595921
C  C27  1  0.29880000  0.11042000  0.61830000  1.0 -0.0230595921
C  C28  1  0.70120000  0.61042000  0.88170000  1.0 -0.0230595921
C  C29  1  0.51620000  0.86841000  0.34850000  1.0 -0.0863859592
C  C30  1  0.48380000  0.36841000  0.15150000  1.0 -0.0863859592
C  C31  1  0.48380000  0.13159000  0.65150000  1.0 -0.0863859592
C  C32  1  0.51620000  0.63159000  0.84850000  1.0 -0.0863859592
C  C33  1  0.51310000  0.82882000  0.31070000  1.0 -0.160310713
C  C34  1  0.48690000  0.32882000  0.18930000  1.0 -0.160310713
C  C35  1  0.48690000  0.17118000  0.68930000  1.0 -0.160310713
C  C36  1  0.51310000  0.67118000  0.81070000  1.0 -0.160310713
C  C37  1  0.70600000  0.93325000  0.41770000  1.0 0.5856839629
C  C38  1  0.29400000  0.43325000  0.08230000  1.0 0.5856839629
C  C39  1  0.29400000  0.06675000  0.58230000  1.0 0.5856839629
C  C40  1  0.70600000  0.56675000  0.91770000  1.0 0.5856839629
C  C41  1  0.49720000  0.67201000  0.20860000  1.0 0.1718499871
C  C42  1  0.50280000  0.17201000  0.29140000  1.0 0.1718499871
C  C43  1  0.50280000  0.32799000  0.79140000  1.0 0.1718499871
C  C44  1  0.49720000  0.82799000  0.70860000  1.0 0.1718499871
C  C45  1  0.58030000  0.63732000  0.18130000  1.0 -0.160310713
C  C46  1  0.41970000  0.13732000  0.31870000  1.0 -0.160310713
C  C47  1  0.41970000  0.36268000  0.81870000  1.0 -0.160310713
C  C48  1  0.58030000  0.86268000  0.68130000  1.0 -0.160310713
C  C49  1  0.46920000  0.60196000  0.16860000  1.0 -0.0687754
C  C50  1  0.53080000  0.10196000  0.33140000  1.0 -0.0687754
C  C51  1  0.53080000  0.39804000  0.83140000  1.0 -0.0687754
C  C52  1  0.46920000  0.89804000  0.66860000  1.0 -0.0687754
C  C53  1  0.27380000  0.60111000  0.18820000  1.0 -0.0230595921
C  C54  1  0.72620000  0.10111000  0.31180000  1.0 -0.0230595921
C  C55  1  0.72620000  0.39889000  0.81180000  1.0 -0.0230595921
C  C56  1  0.27380000  0.89889000  0.68820000  1.0 -0.0230595921
C  C57  1  0.19460000  0.63649000  0.22390000  1.0 -0.0833042277
C  C58  1  0.80540000  0.13649000  0.27610000  1.0 -0.0833042277
C  C59  1  0.80540000  0.36351000  0.77610000  1.0 -0.0833042277
C  C60  1  0.19460000  0.86351000  0.72390000  1.0 -0.0833042277
C  C61  1  0.30310000  0.67206000  0.23180000  1.0 -0.1538276462
C  C62  1  0.69690000  0.17206000  0.26820000  1.0 -0.1538276462
C  C63  1  0.69690000  0.32794000  0.76820000  1.0 -0.1538276462
C  C64  1  0.30310000  0.82794000  0.73180000  1.0 -0.1538276462
C  C65  1  0.13930000  0.56426000  0.16230000  1.0 0.5742294999
C  C66  1  0.86070000  0.06426000  0.33770000  1.0 0.5742294999
C  C67  1  0.86070000  0.43574000  0.83770000  1.0 0.5742294999
C  C68  1  0.13930000  0.93574000  0.66230000  1.0 0.5742294999
N  N1  1  0.69640000  0.77085000  0.26260000  1.0 0.0142031261
N  N2  1  0.30360000  0.27085000  0.23740000  1.0 0.0142031261
N  N3  1  0.30360000  0.22915000  0.73740000  1.0 0.0142031261
N  N4  1  0.69640000  0.72915000  0.76260000  1.0 0.0142031261
N  N5  1  0.60340000  0.70943000  0.21820000  1.0 0.0208518566
N  N6  1  0.39660000  0.20943000  0.28180000  1.0 0.0208518566
N  N7  1  0.39660000  0.29057000  0.78180000  1.0 0.0208518566
N  N8  1  0.60340000  0.79057000  0.71820000  1.0 0.0208518566
Cl  Cl1  1  0.20498000  0.72394000  0.49368000  1.0 1.2839298458
Cl  Cl2  1  0.79502000  0.22394000  0.00632000  1.0 1.2839298458
Cl  Cl3  1  0.79502000  0.27606000  0.50632000  1.0 1.2839298458
Cl  Cl4  1  0.20498000  0.77606000  0.99368000  1.0 1.2839298458
O  O1  1  0.75890000  0.99934000  0.63000000  1.0 -0.6388816326
O  O2  1  0.24110000  0.49934000  0.87000000  1.0 -0.6388816326
O  O3  1  0.24110000  0.00066000  0.37000000  1.0 -0.6388816326
O  O4  1  0.75890000  0.50066000  0.13000000  1.0 -0.6388816326
O  O5  1  0.86690000  0.95189000  0.41530000  1.0 -0.518538315
O  O6  1  0.13310000  0.45189000  0.08470000  1.0 -0.5308083185
O  O7  1  0.13310000  0.04811000  0.58470000  1.0 -0.518538315
O  O8  1  0.86690000  0.54811000  0.91530000  1.0 -0.5308083185
O  O9  1  0.54980000  0.94686000  0.44420000  1.0 -0.5467149703
O  O10  1  0.45020000  0.44686000  0.05580000  1.0 -0.5467149703
O  O11  1  0.45020000  0.05314000  0.55580000  1.0 -0.5467149703
O  O12  1  0.54980000  0.55314000  0.94420000  1.0 -0.5467149703
O  O13  1  0.20440000  0.53476000  0.11270000  1.0 -0.5852715163
O  O14  1  0.79560000  0.03476000  0.38730000  1.0 -0.5852715163
O  O15  1  0.79560000  0.46524000  0.88730000  1.0 -0.5852715163
O  O16  1  0.20440000  0.96524000  0.61270000  1.0 -0.5852715163
O  O17  1  0.97120000  0.56532000  0.18990000  1.0 -0.5308083185
O  O18  1  0.02880000  0.06532000  0.31010000  1.0 -0.5308083185
O  O19  1  0.02880000  0.43468000  0.81010000  1.0 -0.5308083185
O  O20  1  0.97120000  0.93468000  0.68990000  1.0 -0.5308083185
O  O21  1  0.24170000  0.75662000  0.41990000  1.0 -0.518538315
O  O22  1  0.19630000  0.73840000  0.61130000  1.0 -0.507837051
O  O23  1  0.37460000  0.69553000  0.51280000  1.0 -0.4784104838
O  O24  1  0.01030000  0.70505000  0.43020000  1.0 -0.4784104838
O  O25  1  0.75830000  0.25662000  0.08010000  1.0 -0.518538315
O  O26  1  0.80370000  0.23840000  0.88870000  1.0 -0.507837051
O  O27  1  0.62540000  0.19553000  0.98720000  1.0 -0.4784104838
O  O28  1  0.98970000  0.20505000  0.06980000  1.0 -0.4784104838
O  O29  1  0.75830000  0.24338000  0.58010000  1.0 -0.518538315
O  O30  1  0.80370000  0.26160000  0.38870000  1.0 -0.507837051
O  O31  1  0.62540000  0.30447000  0.48720000  1.0 -0.4784104838
O  O32  1  0.98970000  0.29495000  0.56980000  1.0 -0.4784104838
O  O33  1  0.24170000  0.74338000  0.91990000  1.0 -0.518538315
O  O34  1  0.19630000  0.76160000  0.11130000  1.0 -0.507837051
O  O35  1  0.37460000  0.80447000  0.01280000  1.0 -0.4784104838
O  O36  1  0.01030000  0.79495000  0.93020000  1.0 -0.4784104838
