# DDEC6 charges by PACMAN v1.1 (https://github.com/mtap-research/PACMAN-charge/)
data_XATLIQ_ASR_pacman
_symmetry_space_group_name_H-M   'P 1'
_cell_length_a   14.72300000
_cell_length_b   14.72300000
_cell_length_c   13.28100000
_cell_angle_alpha   65.73340000
_cell_angle_beta   114.26700000
_cell_angle_gamma   78.54730000
_symmetry_Int_Tables_number   1
_chemical_formula_structural   Cd2SiH16(C7O2)4
_chemical_formula_sum   'Cd4 Si2 H32 C56 O16'
_cell_volume   2146.02623699
_cell_formula_units_Z   2
loop_
 _symmetry_equiv_pos_site_id
 _symmetry_equiv_pos_as_xyz
  1  'x, y, z'
loop_
 _atom_site_type_symbol
 _atom_site_label
 _atom_site_symmetry_multiplicity
 _atom_site_fract_x
 _atom_site_fract_y
 _atom_site_fract_z
 _atom_site_occupancy
 _atom_site_charge
Cd  Cd1  1  0.31620000  0.31620000  0.75000000  1.0 0.9846836286
Cd  Cd2  1  0.68380000  0.68380000  0.25000000  1.0 0.9846836286
Cd  Cd3  1  0.00000000  0.50000000  0.50000000  1.0 1.0913304644
Cd  Cd4  1  0.50000000  0.00000000  0.00000000  1.0 1.0913304644
Si  Si1  1  0.04843000  0.04843000  0.25000000  1.0 0.6300099748
Si  Si2  1  0.95157000  0.95157000  0.75000000  1.0 0.6300099748
H  H1  1  0.98730000  0.24110000  0.45720000  1.0 0.1102762422
H  H2  1  0.24110000  0.98730000  0.04280000  1.0 0.1102762422
H  H3  1  0.01270000  0.75890000  0.54280000  1.0 0.1102762422
H  H4  1  0.75890000  0.01270000  0.95720000  1.0 0.1102762422
H  H5  1  0.94100000  0.16140000  0.33900000  1.0 0.1102762422
H  H6  1  0.16140000  0.94100000  0.16100000  1.0 0.1102762422
H  H7  1  0.05900000  0.83860000  0.66100000  1.0 0.1102762422
H  H8  1  0.83860000  0.05900000  0.83900000  1.0 0.1102762422
H  H9  1  0.23910000  0.07510000  0.39410000  1.0 0.1102762422
H  H10  1  0.07510000  0.23910000  0.10590000  1.0 0.1102762422
H  H11  1  0.76090000  0.92490000  0.60590000  1.0 0.1102762422
H  H12  1  0.92490000  0.76090000  0.89410000  1.0 0.1102762422
H  H13  1  0.28590000  0.15370000  0.51300000  1.0 0.1268099019
H  H14  1  0.15370000  0.28590000  0.98700000  1.0 0.1268099019
H  H15  1  0.71410000  0.84630000  0.48700000  1.0 0.1268099019
H  H16  1  0.84630000  0.71410000  0.01300000  1.0 0.1268099019
H  H17  1  0.68260000  0.07780000  0.14600000  1.0 0.1216770871
H  H18  1  0.07780000  0.68260000  0.35400000  1.0 0.1216770871
H  H19  1  0.31740000  0.92220000  0.85400000  1.0 0.1216770871
H  H20  1  0.92220000  0.31740000  0.64600000  1.0 0.1216770871
H  H21  1  0.87210000  0.01270000  0.28030000  1.0 0.1102762422
H  H22  1  0.01270000  0.87210000  0.21970000  1.0 0.1102762422
H  H23  1  0.12790000  0.98730000  0.71970000  1.0 0.1102762422
H  H24  1  0.98730000  0.12790000  0.78030000  1.0 0.1102762422
H  H25  1  0.87210000  0.21390000  0.96710000  1.0 0.1102762422
H  H26  1  0.21390000  0.87210000  0.53290000  1.0 0.1102762422
H  H27  1  0.12790000  0.78610000  0.03290000  1.0 0.1102762422
H  H28  1  0.78610000  0.12790000  0.46710000  1.0 0.1102762422
H  H29  1  0.68430000  0.27910000  0.83400000  1.0 0.1216770871
H  H30  1  0.27910000  0.68430000  0.66600000  1.0 0.1216770871
H  H31  1  0.31570000  0.72090000  0.16600000  1.0 0.1216770871
H  H32  1  0.72090000  0.31570000  0.33400000  1.0 0.1216770871
C  C1  1  0.16870000  0.26370000  0.56830000  1.0 0.5905885654
C  C2  1  0.26370000  0.16870000  0.93170000  1.0 0.5905885654
C  C3  1  0.83130000  0.73630000  0.43170000  1.0 0.5905885654
C  C4  1  0.73630000  0.83130000  0.06830000  1.0 0.5905885654
C  C5  1  0.14069000  0.20787000  0.49530000  1.0 -0.0208448233
C  C6  1  0.20787000  0.14069000  0.00470000  1.0 -0.0208448233
C  C7  1  0.85931000  0.79213000  0.50470000  1.0 -0.0208448233
C  C8  1  0.79213000  0.85931000  0.99530000  1.0 -0.0208448233
C  C9  1  0.03844000  0.20824000  0.44400000  1.0 -0.0998719601
C  C10  1  0.20824000  0.03844000  0.05600000  1.0 -0.0998719601
C  C11  1  0.96156000  0.79176000  0.55600000  1.0 -0.0998719601
C  C12  1  0.79176000  0.96156000  0.94400000  1.0 -0.0998719601
C  C13  1  0.01073000  0.16013000  0.37290000  1.0 -0.090302222
C  C14  1  0.16013000  0.01073000  0.12710000  1.0 -0.090302222
C  C15  1  0.98927000  0.83987000  0.62710000  1.0 -0.090302222
C  C16  1  0.83987000  0.98927000  0.87290000  1.0 -0.090302222
C  C17  1  0.08374000  0.11008000  0.35050000  1.0 -0.2103401651
C  C18  1  0.11008000  0.08374000  0.14950000  1.0 -0.2103401651
C  C19  1  0.91626000  0.88992000  0.64950000  1.0 -0.2103401651
C  C20  1  0.88992000  0.91626000  0.85050000  1.0 -0.2103401651
C  C21  1  0.18708000  0.10908000  0.40570000  1.0 -0.090302222
C  C22  1  0.10908000  0.18708000  0.09430000  1.0 -0.090302222
C  C23  1  0.81292000  0.89092000  0.59430000  1.0 -0.090302222
C  C24  1  0.89092000  0.81292000  0.90570000  1.0 -0.090302222
C  C25  1  0.21544000  0.15644000  0.47690000  1.0 -0.0998719601
C  C26  1  0.15644000  0.21544000  0.02310000  1.0 -0.0998719601
C  C27  1  0.78456000  0.84356000  0.52310000  1.0 -0.0998719601
C  C28  1  0.84356000  0.78456000  0.97690000  1.0 -0.0998719601
C  C29  1  0.54234000  0.22372000  0.88860000  1.0 0.5760442572
C  C30  1  0.22372000  0.54234000  0.61140000  1.0 0.5760442572
C  C31  1  0.45766000  0.77628000  0.11140000  1.0 0.5760442572
C  C32  1  0.77628000  0.45766000  0.38860000  1.0 0.5760442572
C  C33  1  0.66473000  0.18295000  0.97620000  1.0 -0.0208448233
C  C34  1  0.18295000  0.66473000  0.52380000  1.0 -0.0208448233
C  C35  1  0.33527000  0.81705000  0.02380000  1.0 -0.0208448233
C  C36  1  0.81705000  0.33527000  0.47620000  1.0 -0.0208448233
C  C37  1  0.72097000  0.10481000  0.10960000  1.0 -0.0998719601
C  C38  1  0.10481000  0.72097000  0.39040000  1.0 -0.0998719601
C  C39  1  0.27903000  0.89519000  0.89040000  1.0 -0.0998719601
C  C40  1  0.89519000  0.27903000  0.60960000  1.0 -0.0998719601
C  C41  1  0.83487000  0.06599000  0.19030000  1.0 -0.090302222
C  C42  1  0.06599000  0.83487000  0.30970000  1.0 -0.090302222
C  C43  1  0.16513000  0.93401000  0.80970000  1.0 -0.090302222
C  C44  1  0.93401000  0.16513000  0.69030000  1.0 -0.090302222
C  C45  1  0.89462000  0.10578000  0.13840000  1.0 -0.2014577692
C  C46  1  0.10578000  0.89462000  0.36160000  1.0 -0.2014577692
C  C47  1  0.10538000  0.89422000  0.86160000  1.0 -0.2014577692
C  C48  1  0.89422000  0.10538000  0.63840000  1.0 -0.2014577692
C  C49  1  0.83470000  0.18558000  0.00420000  1.0 -0.090302222
C  C50  1  0.18558000  0.83470000  0.49580000  1.0 -0.090302222
C  C51  1  0.16530000  0.81442000  0.99580000  1.0 -0.090302222
C  C52  1  0.81442000  0.16530000  0.50420000  1.0 -0.090302222
C  C53  1  0.72199000  0.22465000  0.92380000  1.0 -0.0998719601
C  C54  1  0.22465000  0.72199000  0.57620000  1.0 -0.0998719601
C  C55  1  0.27801000  0.77535000  0.07620000  1.0 -0.0998719601
C  C56  1  0.77535000  0.27801000  0.42380000  1.0 -0.0998719601
O  O1  1  0.09408000  0.32220000  0.56755000  1.0 -0.5861627502
O  O2  1  0.32220000  0.09408000  0.93245000  1.0 -0.5861627502
O  O3  1  0.90592000  0.67780000  0.43245000  1.0 -0.5861627502
O  O4  1  0.67780000  0.90592000  0.06755000  1.0 -0.5861627502
O  O5  1  0.26875000  0.24737000  0.62743000  1.0 -0.5391342683
O  O6  1  0.24737000  0.26875000  0.87257000  1.0 -0.5391342683
O  O7  1  0.73125000  0.75263000  0.37257000  1.0 -0.5391342683
O  O8  1  0.75263000  0.73125000  0.12743000  1.0 -0.5391342683
O  O9  1  0.49437000  0.17431000  0.93607000  1.0 -0.6022695494
O  O10  1  0.17431000  0.49437000  0.56393000  1.0 -0.6022695494
O  O11  1  0.50563000  0.82569000  0.06393000  1.0 -0.6022695494
O  O12  1  0.82569000  0.50563000  0.43607000  1.0 -0.6022695494
O  O13  1  0.48810000  0.30510000  0.77280000  1.0 -0.4994392661
O  O14  1  0.30510000  0.48810000  0.72720000  1.0 -0.4994392661
O  O15  1  0.51190000  0.69490000  0.22720000  1.0 -0.4994392661
O  O16  1  0.69490000  0.51190000  0.27280000  1.0 -0.4994392661
