# DDEC6 charges by PACMAN v1.1 (https://github.com/mtap-research/PACMAN-charge/)
data_XATZUQ_ASR_pacman
_symmetry_space_group_name_H-M   'P 1'
_cell_length_a   19.41290000
_cell_length_b   19.41290000
_cell_length_c   18.34100000
_cell_angle_alpha   86.60120000
_cell_angle_beta   93.39880000
_cell_angle_gamma   42.66180000
_symmetry_Int_Tables_number   1
_chemical_formula_structural   Zn3H36C64(NO)8
_chemical_formula_sum   'Zn6 H72 C128 N16 O16'
_cell_volume   4621.42247784
_cell_formula_units_Z   2
loop_
 _symmetry_equiv_pos_site_id
 _symmetry_equiv_pos_as_xyz
  1  'x, y, z'
loop_
 _atom_site_type_symbol
 _atom_site_label
 _atom_site_symmetry_multiplicity
 _atom_site_fract_x
 _atom_site_fract_y
 _atom_site_fract_z
 _atom_site_occupancy
 _atom_site_charge
Zn  Zn1  1  0.64938000  0.20464000  0.88509000  1.0 0.7192664619
Zn  Zn2  1  0.20464000  0.64938000  0.61491000  1.0 0.7192664619
Zn  Zn3  1  0.35062000  0.79536000  0.11491000  1.0 0.7192664619
Zn  Zn4  1  0.79536000  0.35062000  0.38509000  1.0 0.7192664619
Zn  Zn5  1  0.00000000  0.50000000  0.00000000  1.0 0.6380855764
Zn  Zn6  1  0.50000000  0.00000000  0.50000000  1.0 0.6380855764
H  H1  1  0.02360000  0.74260000  0.93550000  1.0 0.1182516843
H  H2  1  0.74260000  0.02360000  0.56450000  1.0 0.1182516843
H  H3  1  0.97640000  0.25740000  0.06450000  1.0 0.1182516843
H  H4  1  0.25740000  0.97640000  0.43550000  1.0 0.1182516843
H  H5  1  0.61150000  0.47470000  0.14620000  1.0 0.1276099926
H  H6  1  0.47470000  0.61150000  0.35380000  1.0 0.1276099926
H  H7  1  0.38850000  0.52530000  0.85380000  1.0 0.1276099926
H  H8  1  0.52530000  0.38850000  0.64620000  1.0 0.1276099926
H  H9  1  0.88420000  0.13220000  0.99490000  1.0 0.1116276739
H  H10  1  0.13220000  0.88420000  0.50510000  1.0 0.1116276739
H  H11  1  0.11580000  0.86780000  0.00510000  1.0 0.1116276739
H  H12  1  0.86780000  0.11580000  0.49490000  1.0 0.1116276739
H  H13  1  0.05130000  0.01570000  0.05450000  1.0 0.1182516843
H  H14  1  0.01570000  0.05130000  0.44550000  1.0 0.1182516843
H  H15  1  0.94870000  0.98430000  0.94550000  1.0 0.1182516843
H  H16  1  0.98430000  0.94870000  0.55450000  1.0 0.1182516843
H  H17  1  0.08650000  0.04110000  0.16180000  1.0 0.1116276739
H  H18  1  0.04110000  0.08650000  0.33820000  1.0 0.1116276739
H  H19  1  0.91350000  0.95890000  0.83820000  1.0 0.1116276739
H  H20  1  0.95890000  0.91350000  0.66180000  1.0 0.1116276739
H  H21  1  0.95730000  0.18570000  0.21430000  1.0 0.1116276739
H  H22  1  0.18570000  0.95730000  0.28570000  1.0 0.1116276739
H  H23  1  0.04270000  0.81430000  0.78570000  1.0 0.1116276739
H  H24  1  0.81430000  0.04270000  0.71430000  1.0 0.1116276739
H  H25  1  0.57380000  0.44520000  0.04170000  1.0 0.1276099926
H  H26  1  0.44520000  0.57380000  0.45830000  1.0 0.1276099926
H  H27  1  0.42620000  0.55480000  0.95830000  1.0 0.1276099926
H  H28  1  0.55480000  0.42620000  0.54170000  1.0 0.1182516843
H  H29  1  0.68620000  0.04540000  0.81520000  1.0 0.1116276739
H  H30  1  0.04540000  0.68620000  0.68480000  1.0 0.1116276739
H  H31  1  0.31380000  0.95460000  0.18480000  1.0 0.1116276739
H  H32  1  0.95460000  0.31380000  0.31520000  1.0 0.1116276739
H  H33  1  0.77290000  0.87450000  0.84510000  1.0 0.1434259897
H  H34  1  0.87450000  0.77290000  0.65490000  1.0 0.1434259897
H  H35  1  0.22710000  0.12550000  0.15490000  1.0 0.1434259897
H  H36  1  0.12550000  0.22710000  0.34510000  1.0 0.1434259897
H  H37  1  0.67150000  0.88710000  0.98330000  1.0 0.1276099926
H  H38  1  0.88710000  0.67150000  0.51670000  1.0 0.1276099926
H  H39  1  0.32850000  0.11290000  0.01670000  1.0 0.1276099926
H  H40  1  0.11290000  0.32850000  0.48330000  1.0 0.1276099926
H  H41  1  0.61950000  0.80970000  0.02040000  1.0 0.1276099926
H  H42  1  0.80970000  0.61950000  0.47960000  1.0 0.1276099926
H  H43  1  0.38050000  0.19030000  0.97960000  1.0 0.1276099926
H  H44  1  0.19030000  0.38050000  0.52040000  1.0 0.1276099926
H  H45  1  0.86880000  0.86520000  0.04730000  1.0 0.1434259897
H  H46  1  0.86520000  0.86880000  0.45270000  1.0 0.1434259897
H  H47  1  0.13120000  0.13480000  0.95270000  1.0 0.1434259897
H  H48  1  0.13480000  0.13120000  0.54730000  1.0 0.1434259897
H  H49  1  0.78140000  0.03180000  0.01090000  1.0 0.1182516843
H  H50  1  0.03180000  0.78140000  0.48910000  1.0 0.1182516843
H  H51  1  0.21860000  0.96820000  0.98910000  1.0 0.1182516843
H  H52  1  0.96820000  0.21860000  0.51090000  1.0 0.1182516843
H  H53  1  0.56220000  0.67480000  0.18590000  1.0 0.1116276739
H  H54  1  0.67480000  0.56220000  0.31410000  1.0 0.1116276739
H  H55  1  0.43780000  0.32520000  0.81410000  1.0 0.1116276739
H  H56  1  0.32520000  0.43780000  0.68590000  1.0 0.1116276739
H  H57  1  0.71790000  0.59270000  0.15350000  1.0 0.1434259897
H  H58  1  0.59270000  0.71790000  0.34650000  1.0 0.1434259897
H  H59  1  0.28210000  0.40730000  0.84650000  1.0 0.1434259897
H  H60  1  0.40730000  0.28210000  0.65350000  1.0 0.1434259897
H  H61  1  0.60020000  0.67940000  0.94860000  1.0 0.1434259897
H  H62  1  0.67940000  0.60020000  0.55140000  1.0 0.1434259897
H  H63  1  0.39980000  0.32060000  0.05140000  1.0 0.1434259897
H  H64  1  0.32060000  0.39980000  0.44860000  1.0 0.1434259897
H  H65  1  0.19930000  0.56990000  0.93340000  1.0 0.1182516843
H  H66  1  0.56990000  0.19930000  0.56660000  1.0 0.1182516843
H  H67  1  0.80070000  0.43010000  0.06660000  1.0 0.1276099926
H  H68  1  0.43010000  0.80070000  0.43340000  1.0 0.1276099926
H  H69  1  0.44870000  0.75330000  0.98220000  1.0 0.1116276739
H  H70  1  0.75330000  0.44870000  0.51780000  1.0 0.1116276739
H  H71  1  0.55130000  0.24670000  0.01780000  1.0 0.1116276739
H  H72  1  0.24670000  0.55130000  0.48220000  1.0 0.1116276739
C  C1  1  0.04650000  0.68030000  0.94480000  1.0 -0.1991933547
C  C2  1  0.68030000  0.04650000  0.55520000  1.0 -0.1991933547
C  C3  1  0.95350000  0.31970000  0.05520000  1.0 -0.1991933547
C  C4  1  0.31970000  0.95350000  0.44480000  1.0 -0.2097923939
C  C5  1  0.77460000  0.35760000  0.23870000  1.0 0.519404384
C  C6  1  0.35760000  0.77460000  0.26130000  1.0 0.519404384
C  C7  1  0.22540000  0.64240000  0.76130000  1.0 0.519404384
C  C8  1  0.64240000  0.22540000  0.73870000  1.0 0.519404384
C  C9  1  0.66240000  0.41240000  0.12900000  1.0 -0.100069772
C  C10  1  0.41240000  0.66240000  0.37100000  1.0 -0.100069772
C  C11  1  0.33760000  0.58760000  0.87100000  1.0 -0.100069772
C  C12  1  0.58760000  0.33760000  0.62900000  1.0 -0.100069772
C  C13  1  0.67560000  0.63420000  0.05200000  1.0 0.1116276739
C  C14  1  0.63420000  0.67560000  0.44800000  1.0 0.1116276739
C  C15  1  0.32440000  0.36580000  0.94800000  1.0 0.1116276739
C  C16  1  0.36580000  0.32440000  0.55200000  1.0 0.1116276739
C  C17  1  0.75780000  0.33940000  0.16550000  1.0 -0.0696405072
C  C18  1  0.33940000  0.75780000  0.33450000  1.0 -0.0696405072
C  C19  1  0.24220000  0.66060000  0.83450000  1.0 -0.0696405072
C  C20  1  0.66060000  0.24220000  0.66550000  1.0 -0.0696405072
C  C21  1  0.67890000  0.28770000  0.97120000  1.0 0.551330718
C  C22  1  0.28770000  0.67890000  0.52880000  1.0 0.551330718
C  C23  1  0.32110000  0.71230000  0.02880000  1.0 0.551330718
C  C24  1  0.71230000  0.32110000  0.47120000  1.0 0.551330718
C  C25  1  0.71250000  0.30590000  0.03600000  1.0 -0.0453878243
C  C26  1  0.30590000  0.71250000  0.46400000  1.0 -0.0446308081
C  C27  1  0.28750000  0.69410000  0.96400000  1.0 -0.0446308081
C  C28  1  0.69410000  0.28750000  0.53600000  1.0 -0.0453878243
C  C29  1  0.81630000  0.23130000  0.07090000  1.0 0.0594742659
C  C30  1  0.23130000  0.81630000  0.42910000  1.0 0.0594742659
C  C31  1  0.18370000  0.76870000  0.92910000  1.0 0.0594742659
C  C32  1  0.76870000  0.18370000  0.57090000  1.0 0.0594742659
C  C33  1  0.89787000  0.14327000  0.03940000  1.0 -0.1342371279
C  C34  1  0.14327000  0.89787000  0.46060000  1.0 -0.1342371279
C  C35  1  0.10213000  0.85673000  0.96060000  1.0 -0.1342371279
C  C36  1  0.85673000  0.10213000  0.53940000  1.0 -0.1353338633
C  C37  1  0.99810000  0.07370000  0.07510000  1.0 -0.100069772
C  C38  1  0.07370000  0.99810000  0.42490000  1.0 -0.100069772
C  C39  1  0.00190000  0.92630000  0.92490000  1.0 -0.100069772
C  C40  1  0.92630000  0.00190000  0.57510000  1.0 -0.100069772
C  C41  1  0.01880000  0.08920000  0.13830000  1.0 -0.100069772
C  C42  1  0.08920000  0.01880000  0.36170000  1.0 -0.100069772
C  C43  1  0.98120000  0.91080000  0.86170000  1.0 -0.100069772
C  C44  1  0.91080000  0.98120000  0.63830000  1.0 -0.100069772
C  C45  1  0.94120000  0.17580000  0.17020000  1.0 -0.1527700697
C  C46  1  0.17580000  0.94120000  0.32980000  1.0 -0.1527700697
C  C47  1  0.05880000  0.82420000  0.82980000  1.0 -0.1527700697
C  C48  1  0.82420000  0.05880000  0.67020000  1.0 -0.1527700697
C  C49  1  0.83806000  0.24866000  0.13560000  1.0 0.0545514326
C  C50  1  0.24866000  0.83806000  0.36440000  1.0 0.0545514326
C  C51  1  0.16194000  0.75134000  0.86440000  1.0 0.0545514326
C  C52  1  0.75134000  0.16194000  0.63560000  1.0 0.0545514326
C  C53  1  0.64130000  0.39430000  0.06610000  1.0 -0.100069772
C  C54  1  0.39430000  0.64130000  0.43390000  1.0 -0.1053667341
C  C55  1  0.35870000  0.60570000  0.93390000  1.0 -0.1053667341
C  C56  1  0.60570000  0.35870000  0.56610000  1.0 -0.100069772
C  C57  1  0.72290000  0.00930000  0.86220000  1.0 0.1002065733
C  C58  1  0.00930000  0.72290000  0.63780000  1.0 0.1002065733
C  C59  1  0.27710000  0.99070000  0.13780000  1.0 0.1002065733
C  C60  1  0.99070000  0.27710000  0.36220000  1.0 0.1002065733
C  C61  1  0.77550000  0.90530000  0.88030000  1.0 -0.2097923939
C  C62  1  0.90530000  0.77550000  0.61970000  1.0 -0.2097923939
C  C63  1  0.22450000  0.09470000  0.11970000  1.0 -0.2097923939
C  C64  1  0.09470000  0.22450000  0.38030000  1.0 -0.2097923939
C  C65  1  0.82900000  0.85240000  0.94910000  1.0 0.1182516843
C  C66  1  0.85240000  0.82900000  0.55090000  1.0 0.1182516843
C  C67  1  0.17100000  0.14760000  0.05090000  1.0 0.1182516843
C  C68  1  0.14760000  0.17100000  0.44910000  1.0 0.1182516843
C  C69  1  0.88180000  0.74560000  0.96810000  1.0 -0.0838728279
C  C70  1  0.74560000  0.88180000  0.53190000  1.0 -0.0838728279
C  C71  1  0.11820000  0.25440000  0.03190000  1.0 -0.0838728279
C  C72  1  0.25440000  0.11820000  0.46810000  1.0 -0.0838728279
C  C73  1  0.82030000  0.73410000  0.98290000  1.0 0.182252602
C  C74  1  0.73410000  0.82030000  0.51710000  1.0 0.182252602
C  C75  1  0.17970000  0.26590000  0.01710000  1.0 0.182252602
C  C76  1  0.26590000  0.17970000  0.48290000  1.0 0.182252602
C  C77  1  0.71290000  0.81730000  0.99080000  1.0 -0.1991933547
C  C78  1  0.81730000  0.71290000  0.50920000  1.0 -0.1991933547
C  C79  1  0.28710000  0.18270000  0.00920000  1.0 -0.1991933547
C  C80  1  0.18270000  0.28710000  0.49080000  1.0 -0.1991933547
C  C81  1  0.68450000  0.77490000  0.01090000  1.0 -0.1991933547
C  C82  1  0.77490000  0.68450000  0.48910000  1.0 -0.1991933547
C  C83  1  0.31550000  0.22510000  0.98910000  1.0 -0.1991933547
C  C84  1  0.22510000  0.31550000  0.51090000  1.0 -0.1991933547
C  C85  1  0.77250000  0.66570000  0.01500000  1.0 0.182252602
C  C86  1  0.66570000  0.77250000  0.48500000  1.0 0.182252602
C  C87  1  0.22750000  0.33430000  0.98500000  1.0 0.182252602
C  C88  1  0.33430000  0.22750000  0.51500000  1.0 0.182252602
C  C89  1  0.77320000  0.59520000  0.03450000  1.0 -0.0696405072
C  C90  1  0.59520000  0.77320000  0.46550000  1.0 -0.0696405072
C  C91  1  0.22680000  0.40480000  0.96550000  1.0 -0.0696405072
C  C92  1  0.40480000  0.22680000  0.53450000  1.0 -0.0696405072
C  C93  1  0.83250000  0.89910000  0.99980000  1.0 -0.191718541
C  C94  1  0.89910000  0.83250000  0.50020000  1.0 -0.1991933547
C  C95  1  0.16750000  0.10090000  0.00020000  1.0 -0.191718541
C  C96  1  0.10090000  0.16750000  0.49980000  1.0 -0.1991933547
C  C97  1  0.77930000  0.99970000  0.97680000  1.0 0.0594742659
C  C98  1  0.99970000  0.77930000  0.52320000  1.0 0.0594742659
C  C99  1  0.22070000  0.00030000  0.02320000  1.0 0.0594742659
C  C100  1  0.00030000  0.22070000  0.47680000  1.0 0.0594742659
C  C101  1  0.56790000  0.67630000  0.13590000  1.0 0.1002065733
C  C102  1  0.67630000  0.56790000  0.36410000  1.0 0.1002065733
C  C103  1  0.43210000  0.32370000  0.86410000  1.0 0.1002065733
C  C104  1  0.32370000  0.43210000  0.63590000  1.0 0.1002065733
C  C105  1  0.66240000  0.62940000  0.11600000  1.0 -0.1787891959
C  C106  1  0.62940000  0.66240000  0.38400000  1.0 -0.1787891959
C  C107  1  0.33760000  0.37060000  0.88400000  1.0 -0.1787891959
C  C108  1  0.37060000  0.33760000  0.61600000  1.0 -0.1787891959
C  C109  1  0.59360000  0.67880000  0.99840000  1.0 -0.2171260242
C  C110  1  0.67880000  0.59360000  0.50160000  1.0 -0.2171260242
C  C111  1  0.40640000  0.32120000  0.00160000  1.0 -0.2171260242
C  C112  1  0.32120000  0.40640000  0.49840000  1.0 -0.2171260242
C  C113  1  0.14340000  0.58500000  0.94380000  1.0 -0.191718541
C  C114  1  0.58500000  0.14340000  0.55620000  1.0 -0.191718541
C  C115  1  0.85660000  0.41500000  0.05620000  1.0 -0.191718541
C  C116  1  0.41500000  0.85660000  0.44380000  1.0 -0.191718541
C  C117  1  0.98590000  0.66570000  0.96330000  1.0 0.182252602
C  C118  1  0.66570000  0.98590000  0.53670000  1.0 0.1851247276
C  C119  1  0.01410000  0.33430000  0.03670000  1.0 0.182252602
C  C120  1  0.33430000  0.01410000  0.46330000  1.0 0.182252602
C  C121  1  0.85650000  0.48750000  0.03830000  1.0 0.1719160701
C  C122  1  0.48750000  0.85650000  0.46170000  1.0 0.1719160701
C  C123  1  0.14350000  0.51250000  0.96170000  1.0 0.1719160701
C  C124  1  0.51250000  0.14350000  0.53830000  1.0 0.1719160701
C  C125  1  0.50340000  0.72180000  0.01880000  1.0 0.0420763108
C  C126  1  0.72180000  0.50340000  0.48120000  1.0 0.0420763108
C  C127  1  0.49660000  0.27820000  0.98120000  1.0 0.0420763108
C  C128  1  0.27820000  0.49660000  0.51880000  1.0 0.0420763108
N  N1  1  0.49091000  0.72011000  0.08930000  1.0 -0.2171260242
N  N2  1  0.72011000  0.49091000  0.41070000  1.0 -0.2171260242
N  N3  1  0.50909000  0.27989000  0.91070000  1.0 -0.2171260242
N  N4  1  0.27989000  0.50909000  0.58930000  1.0 -0.2171260242
N  N5  1  0.72592000  0.05312000  0.91050000  1.0 -0.2305131529
N  N6  1  0.05312000  0.72592000  0.58950000  1.0 -0.2305131529
N  N7  1  0.27408000  0.94688000  0.08950000  1.0 -0.2305131529
N  N8  1  0.94688000  0.27408000  0.41050000  1.0 -0.2305131529
N  N9  1  0.85366000  0.64346000  0.99780000  1.0 -0.3555765425
N  N10  1  0.64346000  0.85366000  0.50220000  1.0 -0.3555765425
N  N11  1  0.14634000  0.35654000  0.00220000  1.0 -0.3555765425
N  N12  1  0.35654000  0.14634000  0.49780000  1.0 -0.3555765425
N  N13  1  0.04595000  0.56315000  0.97450000  1.0 -0.3713241268
N  N14  1  0.56315000  0.04595000  0.52550000  1.0 -0.3713241268
N  N15  1  0.95405000  0.43685000  0.02550000  1.0 -0.3713241268
N  N16  1  0.43685000  0.95405000  0.47450000  1.0 -0.3713241268
O  O1  1  0.79896000  0.30316000  0.29370000  1.0 -0.4164138709
O  O2  1  0.30316000  0.79896000  0.20630000  1.0 -0.4164138709
O  O3  1  0.20104000  0.69684000  0.70630000  1.0 -0.4164138709
O  O4  1  0.69684000  0.20104000  0.79370000  1.0 -0.4138162111
O  O5  1  0.76660000  0.42440000  0.24550000  1.0 -0.4848704611
O  O6  1  0.42440000  0.76660000  0.25450000  1.0 -0.4848704611
O  O7  1  0.23340000  0.57560000  0.75450000  1.0 -0.485343871
O  O8  1  0.57560000  0.23340000  0.74550000  1.0 -0.4848704611
O  O9  1  0.72165000  0.19785000  0.97040000  1.0 -0.5463868503
O  O10  1  0.19785000  0.72165000  0.52960000  1.0 -0.5463868503
O  O11  1  0.27835000  0.80215000  0.02960000  1.0 -0.5463868503
O  O12  1  0.80215000  0.27835000  0.47040000  1.0 -0.5463868503
O  O13  1  0.60784000  0.36004000  0.92260000  1.0 -0.5303973232
O  O14  1  0.36004000  0.60784000  0.57740000  1.0 -0.5303973232
O  O15  1  0.39216000  0.63996000  0.07740000  1.0 -0.5303973232
O  O16  1  0.63996000  0.39216000  0.42260000  1.0 -0.5303973232
