# DDEC6 charges by PACMAN v1.1 (https://github.com/mtap-research/PACMAN-charge/)
data_XAVDUV_ASR_pacman
_symmetry_space_group_name_H-M   'P 1'
_cell_length_a   10.81490000
_cell_length_b   10.81490000
_cell_length_c   6.76000000
_cell_angle_alpha   79.95820000
_cell_angle_beta   100.04200000
_cell_angle_gamma   139.24100000
_symmetry_Int_Tables_number   1
_chemical_formula_structural   AlC10O3
_chemical_formula_sum   'Al2 C20 O6'
_cell_volume   507.19835256
_cell_formula_units_Z   2
loop_
 _symmetry_equiv_pos_site_id
 _symmetry_equiv_pos_as_xyz
  1  'x, y, z'
loop_
 _atom_site_type_symbol
 _atom_site_label
 _atom_site_symmetry_multiplicity
 _atom_site_fract_x
 _atom_site_fract_y
 _atom_site_fract_z
 _atom_site_occupancy
 _atom_site_charge
Al  Al1  1  0.00108000  0.99852000  0.00130000  1.0 1.1406221607
Al  Al2  1  0.00148000  0.99892000  0.50130000  1.0 1.1406221607
C  C1  1  0.79909000  0.95749000  0.93781000  1.0 -0.2626772604
C  C2  1  0.04251000  0.20091000  0.43781000  1.0 -0.2626772604
C  C3  1  0.21528000  0.04998000  0.63467000  1.0 -0.1802526569
C  C4  1  0.95002000  0.78472000  0.13467000  1.0 -0.1802526569
C  C5  1  0.61443000  0.99211000  0.00762000  1.0 0.199284605
C  C6  1  0.00789000  0.38557000  0.50762000  1.0 0.199284605
C  C7  1  0.55090000  0.00782000  0.14925000  1.0 0.0303728863
C  C8  1  0.99218000  0.44910000  0.64925000  1.0 0.0303728863
C  C9  1  0.43729000  0.02583000  0.09026000  1.0 -0.0195467655
C  C10  1  0.97417000  0.56271000  0.59026000  1.0 -0.0195467655
C  C11  1  0.38720000  0.02810000  0.88963000  1.0 0.2104092756
C  C12  1  0.97190000  0.61280000  0.38963000  1.0 0.2104092756
C  C13  1  0.73882000  0.97240000  0.07220000  1.0 0.0303728863
C  C14  1  0.02760000  0.26118000  0.57220000  1.0 0.0303728863
C  C15  1  0.78634000  0.97024000  0.26258000  1.0 0.018453596
C  C16  1  0.02976000  0.21366000  0.76258000  1.0 0.018453596
C  C17  1  0.26281000  0.04781000  0.82504000  1.0 0.0746821084
C  C18  1  0.95219000  0.73719000  0.32504000  1.0 0.0765357682
C  C19  1  0.20253000  0.06273000  0.95944000  1.0 -0.232506544
C  C20  1  0.93727000  0.79747000  0.45944000  1.0 -0.232506544
O  O1  1  0.11030000  0.10990000  0.25550000  1.0 -0.7436917803
O  O2  1  0.89010000  0.88970000  0.75550000  1.0 -0.7436917803
O  O3  1  0.56433000  0.99439000  0.80699000  1.0 -0.1325084152
O  O4  1  0.00561000  0.43567000  0.30699000  1.0 -0.1325084152
O  O5  1  0.45073000  0.01239000  0.74799000  1.0 -0.1353734365
O  O6  1  0.98761000  0.54927000  0.24799000  1.0 -0.1325084152
