# DDEC6 charges by PACMAN v1.1 (https://github.com/mtap-research/PACMAN-charge/)
data_XAWZUU02_FSR_pacman
_symmetry_space_group_name_H-M   'P 1'
_cell_length_a   13.55910000
_cell_length_b   16.28370000
_cell_length_c   31.98990000
_cell_angle_alpha   90.00000000
_cell_angle_beta   90.00000000
_cell_angle_gamma   90.00000000
_symmetry_Int_Tables_number   1
_chemical_formula_structural   FeAg2H10C16(N4O)2
_chemical_formula_sum   'Fe8 Ag16 H80 C128 N64 O16'
_cell_volume   7063.12413104
_cell_formula_units_Z   8
loop_
 _symmetry_equiv_pos_site_id
 _symmetry_equiv_pos_as_xyz
  1  'x, y, z'
loop_
 _atom_site_type_symbol
 _atom_site_label
 _atom_site_symmetry_multiplicity
 _atom_site_fract_x
 _atom_site_fract_y
 _atom_site_fract_z
 _atom_site_occupancy
 _atom_site_charge
Fe  Fe1  1  0.25009000  0.79705000  0.29699000  1.0 0.7588187998
Fe  Fe2  1  0.74939000  0.76300000  0.20373000  1.0 0.7536741044
Fe  Fe3  1  0.74991000  0.20295000  0.79699000  1.0 0.7588187998
Fe  Fe4  1  0.25061000  0.23700000  0.70373000  1.0 0.7536741044
Fe  Fe5  1  0.74991000  0.29705000  0.29699000  1.0 0.7588187998
Fe  Fe6  1  0.25061000  0.26300000  0.20373000  1.0 0.7588187998
Fe  Fe7  1  0.25009000  0.70295000  0.79699000  1.0 0.7588187998
Fe  Fe8  1  0.74939000  0.73700000  0.70373000  1.0 0.7536741044
Ag  Ag1  1  0.52432000  0.56370000  0.29521000  1.0 0.1504139797
Ag  Ag2  1  0.99105000  0.03894000  0.29442000  1.0 0.1288664287
Ag  Ag3  1  0.52766000  0.49321000  0.20602000  1.0 0.1643578952
Ag  Ag4  1  0.99806000  0.01582000  0.19970000  1.0 0.1288664287
Ag  Ag5  1  0.47568000  0.43630000  0.79521000  1.0 0.1504139797
Ag  Ag6  1  0.00895000  0.96106000  0.79442000  1.0 0.1288664287
Ag  Ag7  1  0.47234000  0.50679000  0.70602000  1.0 0.1663421338
Ag  Ag8  1  0.00194000  0.98418000  0.69970000  1.0 0.1288664287
Ag  Ag9  1  0.47568000  0.06370000  0.29521000  1.0 0.1504139797
Ag  Ag10  1  0.00895000  0.53894000  0.29442000  1.0 0.1288664287
Ag  Ag11  1  0.47234000  0.99321000  0.20602000  1.0 0.1643578952
Ag  Ag12  1  0.00194000  0.51582000  0.19970000  1.0 0.1288664287
Ag  Ag13  1  0.52432000  0.93630000  0.79521000  1.0 0.1504139797
Ag  Ag14  1  0.99105000  0.46106000  0.79442000  1.0 0.1288664287
Ag  Ag15  1  0.52766000  0.00679000  0.70602000  1.0 0.1663421338
Ag  Ag16  1  0.99806000  0.48418000  0.69970000  1.0 0.1288664287
H  H1  1  0.16550000  0.67391000  0.58590000  1.0 0.2874288067
H  H2  1  0.09815000  0.69201000  0.72217000  1.0 0.1096024642
H  H3  1  0.38403000  0.69863000  0.71556000  1.0 0.1096024642
H  H4  1  0.08557000  0.68165000  0.65114000  1.0 0.1416625625
H  H5  1  0.14429000  0.73462000  0.44789000  1.0 0.1504139797
H  H6  1  0.36536000  0.76260000  0.50250000  1.0 0.2809553774
H  H7  1  0.12633000  0.75928000  0.37827000  1.0 0.1096024642
H  H8  1  0.43260000  0.78703000  0.43650000  1.0 0.1416625625
H  H9  1  0.38114000  0.70130000  0.64444000  1.0 0.1416625625
H  H10  1  0.40732000  0.81043000  0.36719000  1.0 0.1164346768
H  H11  1  0.61970000  0.74812000  0.35278000  1.0 0.1416625625
H  H12  1  0.61722000  0.75532000  0.28046000  1.0 0.1096024642
H  H13  1  0.90398000  0.75896000  0.27497000  1.0 0.1096024642
H  H14  1  0.83706000  0.72638000  0.41026000  1.0 0.2874288067
H  H15  1  0.56240000  0.76466000  0.56527000  1.0 0.1416625625
H  H16  1  0.62684000  0.75937000  0.49785000  1.0 0.2874288067
H  H17  1  0.91634000  0.74395000  0.34622000  1.0 0.1416625625
H  H18  1  0.84744000  0.70912000  0.54767000  1.0 0.1504139797
H  H19  1  0.58715000  0.75575000  0.63554000  1.0 0.1164346768
H  H20  1  0.86521000  0.70165000  0.61919000  1.0 0.1096024642
H  H21  1  0.83450000  0.32609000  0.08590000  1.0 0.2874288067
H  H22  1  0.90185000  0.30799000  0.22217000  1.0 0.1096024642
H  H23  1  0.61597000  0.30137000  0.21556000  1.0 0.1096024642
H  H24  1  0.91443000  0.31835000  0.15114000  1.0 0.1416625625
H  H25  1  0.85571000  0.26538000  0.94789000  1.0 0.1504139797
H  H26  1  0.63464000  0.23740000  0.00250000  1.0 0.2809553774
H  H27  1  0.87367000  0.24072000  0.87827000  1.0 0.1096024642
H  H28  1  0.56740000  0.21297000  0.93650000  1.0 0.1416625625
H  H29  1  0.61886000  0.29870000  0.14444000  1.0 0.1416625625
H  H30  1  0.59268000  0.18957000  0.86719000  1.0 0.1164346768
H  H31  1  0.38030000  0.25188000  0.85278000  1.0 0.1416625625
H  H32  1  0.38278000  0.24468000  0.78046000  1.0 0.1004328612
H  H33  1  0.09602000  0.24104000  0.77497000  1.0 0.1096024642
H  H34  1  0.16294000  0.27362000  0.91026000  1.0 0.2874288067
H  H35  1  0.43760000  0.23534000  0.06527000  1.0 0.1416625625
H  H36  1  0.37316000  0.24063000  0.99785000  1.0 0.2874288067
H  H37  1  0.08366000  0.25605000  0.84622000  1.0 0.1416625625
H  H38  1  0.15256000  0.29088000  0.04767000  1.0 0.1504139797
H  H39  1  0.41285000  0.24425000  0.13554000  1.0 0.1164346768
H  H40  1  0.13479000  0.29835000  0.11919000  1.0 0.1096024642
H  H41  1  0.83450000  0.17391000  0.58590000  1.0 0.2874288067
H  H42  1  0.90185000  0.19201000  0.72217000  1.0 0.1096024642
H  H43  1  0.61597000  0.19863000  0.71556000  1.0 0.1096024642
H  H44  1  0.91443000  0.18165000  0.65114000  1.0 0.1416625625
H  H45  1  0.85571000  0.23462000  0.44789000  1.0 0.1504139797
H  H46  1  0.63464000  0.26260000  0.50250000  1.0 0.2874288067
H  H47  1  0.87367000  0.25928000  0.37827000  1.0 0.1096024642
H  H48  1  0.56740000  0.28703000  0.43650000  1.0 0.1416625625
H  H49  1  0.61886000  0.20130000  0.64444000  1.0 0.1416625625
H  H50  1  0.59268000  0.31043000  0.36719000  1.0 0.1164346768
H  H51  1  0.38030000  0.24812000  0.35278000  1.0 0.1416625625
H  H52  1  0.38278000  0.25532000  0.28046000  1.0 0.1096024642
H  H53  1  0.09602000  0.25896000  0.27497000  1.0 0.1096024642
H  H54  1  0.16294000  0.22638000  0.41026000  1.0 0.2874288067
H  H55  1  0.43760000  0.26466000  0.56527000  1.0 0.1416625625
H  H56  1  0.37316000  0.25937000  0.49785000  1.0 0.2874288067
H  H57  1  0.08366000  0.24395000  0.34622000  1.0 0.1416625625
H  H58  1  0.15256000  0.20912000  0.54767000  1.0 0.1504139797
H  H59  1  0.41285000  0.25575000  0.63554000  1.0 0.1164346768
H  H60  1  0.13479000  0.20165000  0.61919000  1.0 0.1096024642
H  H61  1  0.16550000  0.82609000  0.08590000  1.0 0.2874288067
H  H62  1  0.09815000  0.80799000  0.22217000  1.0 0.1096024642
H  H63  1  0.38403000  0.80137000  0.21556000  1.0 0.1096024642
H  H64  1  0.08557000  0.81835000  0.15114000  1.0 0.1416625625
H  H65  1  0.14429000  0.76538000  0.94789000  1.0 0.1504139797
H  H66  1  0.36536000  0.73740000  0.00250000  1.0 0.2809553774
H  H67  1  0.12633000  0.74072000  0.87827000  1.0 0.1096024642
H  H68  1  0.43260000  0.71297000  0.93650000  1.0 0.1416625625
H  H69  1  0.38114000  0.79870000  0.14444000  1.0 0.1416625625
H  H70  1  0.40732000  0.68957000  0.86719000  1.0 0.1164346768
H  H71  1  0.61970000  0.75188000  0.85278000  1.0 0.1416625625
H  H72  1  0.61722000  0.74468000  0.78046000  1.0 0.1096024642
H  H73  1  0.90398000  0.74104000  0.77497000  1.0 0.1096024642
H  H74  1  0.83706000  0.77362000  0.91026000  1.0 0.2874288067
H  H75  1  0.56240000  0.73534000  0.06527000  1.0 0.1416625625
H  H76  1  0.62684000  0.74063000  0.99785000  1.0 0.2874288067
H  H77  1  0.91634000  0.75605000  0.84622000  1.0 0.1416625625
H  H78  1  0.84744000  0.79088000  0.04767000  1.0 0.1504139797
H  H79  1  0.58715000  0.74425000  0.13554000  1.0 0.1164346768
H  H80  1  0.86521000  0.79835000  0.11919000  1.0 0.1096024642
C  C1  1  0.15570000  0.69180000  0.70630000  1.0 0.0914626801
C  C2  1  0.32300000  0.69740000  0.70230000  1.0 0.0914626801
C  C3  1  0.14740000  0.68740000  0.66340000  1.0 -0.2571902989
C  C4  1  0.19880000  0.75030000  0.43220000  1.0 -0.2215505631
C  C5  1  0.18870000  0.76450000  0.39010000  1.0 0.0914626801
C  C6  1  0.23190000  0.69160000  0.63820000  1.0 0.2874288067
C  C7  1  0.28900000  0.71360000  0.56680000  1.0 0.37834248
C  C8  1  0.24640000  0.71210000  0.52180000  1.0 0.37834248
C  C9  1  0.07710000  0.93340000  0.29770000  1.0 0.0011869396
C  C10  1  0.36960000  0.78130000  0.42540000  1.0 -0.2507693408
C  C11  1  0.42800000  0.66350000  0.29260000  1.0 0.0090236281
C  C12  1  0.32240000  0.69750000  0.65930000  1.0 -0.2360557782
C  C13  1  0.35410000  0.79460000  0.38360000  1.0 0.1004328612
C  C14  1  0.09860000  0.64330000  0.29420000  1.0 0.0090236281
C  C15  1  0.29050000  0.75910000  0.45140000  1.0 0.2809553774
C  C16  1  0.39070000  0.95880000  0.29850000  1.0 -0.0016848113
C  C17  1  0.67830000  0.74880000  0.33770000  1.0 -0.2360557782
C  C18  1  0.67780000  0.75480000  0.29410000  1.0 0.1096024642
C  C19  1  0.61110000  0.59990000  0.20310000  1.0 -0.0016848113
C  C20  1  0.84670000  0.75580000  0.29090000  1.0 0.0914626801
C  C21  1  0.75150000  0.73550000  0.47500000  1.0 0.37834248
C  C22  1  0.62500000  0.75280000  0.57550000  1.0 -0.2571902989
C  C23  1  0.76830000  0.74400000  0.35780000  1.0 0.2727360374
C  C24  1  0.70280000  0.74000000  0.54790000  1.0 0.2727360374
C  C25  1  0.70870000  0.75100000  0.43040000  1.0 0.37834248
C  C26  1  0.85470000  0.74740000  0.33360000  1.0 -0.2507693408
C  C27  1  0.79390000  0.71990000  0.56500000  1.0 -0.2276975138
C  C28  1  0.90650000  0.91360000  0.19950000  1.0 -0.0100295271
C  C29  1  0.57020000  0.89600000  0.20650000  1.0 -0.0100295271
C  C30  1  0.64070000  0.74790000  0.61780000  1.0 0.1096024642
C  C31  1  0.91660000  0.62320000  0.19750000  1.0 0.03565361
C  C32  1  0.80410000  0.71600000  0.60820000  1.0 0.0914626801
C  C33  1  0.84430000  0.30820000  0.20630000  1.0 0.0914626801
C  C34  1  0.67700000  0.30260000  0.20230000  1.0 0.0914626801
C  C35  1  0.85260000  0.31260000  0.16340000  1.0 -0.2571902989
C  C36  1  0.80120000  0.24970000  0.93220000  1.0 -0.2215505631
C  C37  1  0.81130000  0.23550000  0.89010000  1.0 0.0914626801
C  C38  1  0.76810000  0.30840000  0.13820000  1.0 0.2874288067
C  C39  1  0.71100000  0.28640000  0.06680000  1.0 0.37834248
C  C40  1  0.75360000  0.28790000  0.02180000  1.0 0.37834248
C  C41  1  0.92290000  0.06660000  0.79770000  1.0 0.0011869396
C  C42  1  0.63040000  0.21870000  0.92540000  1.0 -0.2507693408
C  C43  1  0.57200000  0.33650000  0.79260000  1.0 0.0011869396
C  C44  1  0.67760000  0.30250000  0.15930000  1.0 -0.2360557782
C  C45  1  0.64590000  0.20540000  0.88360000  1.0 0.1004328612
C  C46  1  0.90140000  0.35670000  0.79420000  1.0 0.0090236281
C  C47  1  0.70950000  0.24090000  0.95140000  1.0 0.2809553774
C  C48  1  0.60930000  0.04120000  0.79850000  1.0 -0.0016848113
C  C49  1  0.32170000  0.25120000  0.83770000  1.0 -0.2360557782
C  C50  1  0.32220000  0.24520000  0.79410000  1.0 0.1096024642
C  C51  1  0.38890000  0.40010000  0.70310000  1.0 -0.0016848113
C  C52  1  0.15330000  0.24420000  0.79090000  1.0 0.1004328612
C  C53  1  0.24850000  0.26450000  0.97500000  1.0 0.37834248
C  C54  1  0.37500000  0.24720000  0.07550000  1.0 -0.2507693408
C  C55  1  0.23170000  0.25600000  0.85780000  1.0 0.2727360374
C  C56  1  0.29720000  0.26000000  0.04790000  1.0 0.2727360374
C  C57  1  0.29130000  0.24900000  0.93040000  1.0 0.37834248
C  C58  1  0.14530000  0.25260000  0.83360000  1.0 -0.2507693408
C  C59  1  0.20610000  0.28010000  0.06500000  1.0 -0.2276975138
C  C60  1  0.09350000  0.08640000  0.69950000  1.0 -0.0100295271
C  C61  1  0.42980000  0.10400000  0.70650000  1.0 -0.0100295271
C  C62  1  0.35930000  0.25210000  0.11780000  1.0 0.1096024642
C  C63  1  0.08340000  0.37680000  0.69750000  1.0 0.03565361
C  C64  1  0.19590000  0.28400000  0.10820000  1.0 0.0914626801
C  C65  1  0.84430000  0.19180000  0.70630000  1.0 0.0914626801
C  C66  1  0.67700000  0.19740000  0.70230000  1.0 0.0914626801
C  C67  1  0.85260000  0.18740000  0.66340000  1.0 -0.2571902989
C  C68  1  0.80120000  0.25030000  0.43220000  1.0 -0.2215505631
C  C69  1  0.81130000  0.26450000  0.39010000  1.0 0.0914626801
C  C70  1  0.76810000  0.19160000  0.63820000  1.0 0.2874288067
C  C71  1  0.71100000  0.21360000  0.56680000  1.0 0.37834248
C  C72  1  0.75360000  0.21210000  0.52180000  1.0 0.37834248
C  C73  1  0.92290000  0.43340000  0.29770000  1.0 0.0011869396
C  C74  1  0.63040000  0.28130000  0.42540000  1.0 -0.2507693408
C  C75  1  0.57200000  0.16350000  0.29260000  1.0 0.0090236281
C  C76  1  0.67760000  0.19750000  0.65930000  1.0 -0.2360557782
C  C77  1  0.64590000  0.29460000  0.38360000  1.0 0.1004328612
C  C78  1  0.90140000  0.14330000  0.29420000  1.0 0.0090236281
C  C79  1  0.70950000  0.25910000  0.45140000  1.0 0.2809553774
C  C80  1  0.60930000  0.45880000  0.29850000  1.0 -0.0016848113
C  C81  1  0.32170000  0.24880000  0.33770000  1.0 -0.2360557782
C  C82  1  0.32220000  0.25480000  0.29410000  1.0 0.1096024642
C  C83  1  0.38890000  0.09990000  0.20310000  1.0 -0.0016848113
C  C84  1  0.15330000  0.25580000  0.29090000  1.0 0.0914626801
C  C85  1  0.24850000  0.23550000  0.47500000  1.0 0.37834248
C  C86  1  0.37500000  0.25280000  0.57550000  1.0 -0.2571902989
C  C87  1  0.23170000  0.24400000  0.35780000  1.0 0.2727360374
C  C88  1  0.29720000  0.24000000  0.54790000  1.0 0.2727360374
C  C89  1  0.29130000  0.25100000  0.43040000  1.0 0.37834248
C  C90  1  0.14530000  0.24740000  0.33360000  1.0 -0.2507693408
C  C91  1  0.20610000  0.21990000  0.56500000  1.0 -0.2276975138
C  C92  1  0.09350000  0.41360000  0.19950000  1.0 -0.0100295271
C  C93  1  0.42980000  0.39600000  0.20650000  1.0 -0.0100295271
C  C94  1  0.35930000  0.24790000  0.61780000  1.0 0.1096024642
C  C95  1  0.08340000  0.12320000  0.19750000  1.0 0.03565361
C  C96  1  0.19590000  0.21600000  0.60820000  1.0 0.0914626801
C  C97  1  0.15570000  0.80820000  0.20630000  1.0 0.0914626801
C  C98  1  0.32300000  0.80260000  0.20230000  1.0 0.0914626801
C  C99  1  0.14740000  0.81260000  0.16340000  1.0 -0.2571902989
C  C100  1  0.19880000  0.74970000  0.93220000  1.0 -0.2215505631
C  C101  1  0.18870000  0.73550000  0.89010000  1.0 0.0914626801
C  C102  1  0.23190000  0.80840000  0.13820000  1.0 0.2874288067
C  C103  1  0.28900000  0.78640000  0.06680000  1.0 0.37834248
C  C104  1  0.24640000  0.78790000  0.02180000  1.0 0.3745858615
C  C105  1  0.07710000  0.56660000  0.79770000  1.0 0.0011869396
C  C106  1  0.36960000  0.71870000  0.92540000  1.0 -0.2507693408
C  C107  1  0.42800000  0.83650000  0.79260000  1.0 0.0090236281
C  C108  1  0.32240000  0.80250000  0.15930000  1.0 -0.2360557782
C  C109  1  0.35410000  0.70540000  0.88360000  1.0 0.1004328612
C  C110  1  0.09860000  0.85670000  0.79420000  1.0 0.0090236281
C  C111  1  0.29050000  0.74090000  0.95140000  1.0 0.2809553774
C  C112  1  0.39070000  0.54120000  0.79850000  1.0 -0.0016848113
C  C113  1  0.67830000  0.75120000  0.83770000  1.0 -0.2360557782
C  C114  1  0.67780000  0.74520000  0.79410000  1.0 0.1096024642
C  C115  1  0.61110000  0.90010000  0.70310000  1.0 -0.0016848113
C  C116  1  0.84670000  0.74420000  0.79090000  1.0 0.0914626801
C  C117  1  0.75150000  0.76450000  0.97500000  1.0 0.37834248
C  C118  1  0.62500000  0.74720000  0.07550000  1.0 -0.2571902989
C  C119  1  0.76830000  0.75600000  0.85780000  1.0 0.2727360374
C  C120  1  0.70280000  0.76000000  0.04790000  1.0 0.2727360374
C  C121  1  0.70870000  0.74900000  0.93040000  1.0 0.37834248
C  C122  1  0.85470000  0.75260000  0.83360000  1.0 -0.2507693408
C  C123  1  0.79390000  0.78010000  0.06500000  1.0 -0.2276975138
C  C124  1  0.90650000  0.58640000  0.69950000  1.0 -0.0100295271
C  C125  1  0.57020000  0.60400000  0.70650000  1.0 -0.0100295271
C  C126  1  0.64070000  0.75210000  0.11780000  1.0 0.1096024642
C  C127  1  0.91660000  0.87680000  0.69750000  1.0 0.03565361
C  C128  1  0.80410000  0.78400000  0.10820000  1.0 0.0914626801
N  N1  1  0.24260000  0.69570000  0.72650000  1.0 -0.2276975138
N  N2  1  0.34880000  0.89920000  0.29830000  1.0 -0.3390370733
N  N3  1  0.37360000  0.71190000  0.29100000  1.0 -0.3390370733
N  N4  1  0.14610000  0.69530000  0.29510000  1.0 -0.3390370733
N  N5  1  0.22130000  0.69080000  0.59540000  1.0 -0.3318861823
N  N6  1  0.12910000  0.88250000  0.29980000  1.0 -0.3318861823
N  N7  1  0.30880000  0.74680000  0.49330000  1.0 -0.3490297431
N  N8  1  0.26420000  0.78550000  0.36510000  1.0 -0.2276975138
N  N9  1  0.65060000  0.65890000  0.20390000  1.0 -0.3390370733
N  N10  1  0.75880000  0.75970000  0.27130000  1.0 -0.2215505631
N  N11  1  0.77920000  0.73870000  0.40120000  1.0 -0.3318861823
N  N12  1  0.86970000  0.67440000  0.19720000  1.0 -0.3490297431
N  N13  1  0.85420000  0.86150000  0.20100000  1.0 -0.3390370733
N  N14  1  0.62750000  0.84700000  0.20760000  1.0 -0.3390370733
N  N15  1  0.68580000  0.74670000  0.50540000  1.0 -0.3390370733
N  N16  1  0.72930000  0.73220000  0.63500000  1.0 -0.2276975138
N  N17  1  0.75740000  0.30430000  0.22650000  1.0 -0.2276975138
N  N18  1  0.65120000  0.10080000  0.79830000  1.0 -0.3318861823
N  N19  1  0.62640000  0.28810000  0.79100000  1.0 -0.3390370733
N  N20  1  0.85390000  0.30470000  0.79510000  1.0 -0.3390370733
N  N21  1  0.77870000  0.30920000  0.09540000  1.0 -0.3318861823
N  N22  1  0.87090000  0.11750000  0.79980000  1.0 -0.3318861823
N  N23  1  0.69120000  0.25320000  0.99330000  1.0 -0.3490297431
N  N24  1  0.73580000  0.21450000  0.86510000  1.0 -0.2276975138
N  N25  1  0.34940000  0.34110000  0.70390000  1.0 -0.3390370733
N  N26  1  0.24120000  0.24030000  0.77130000  1.0 -0.2215505631
N  N27  1  0.22080000  0.26130000  0.90120000  1.0 -0.3318861823
N  N28  1  0.13030000  0.32560000  0.69720000  1.0 -0.3490297431
N  N29  1  0.14580000  0.13850000  0.70100000  1.0 -0.3390370733
N  N30  1  0.37250000  0.15300000  0.70760000  1.0 -0.3390370733
N  N31  1  0.31420000  0.25330000  0.00540000  1.0 -0.3490297431
N  N32  1  0.27070000  0.26780000  0.13500000  1.0 -0.2276975138
N  N33  1  0.75740000  0.19570000  0.72650000  1.0 -0.2276975138
N  N34  1  0.65120000  0.39920000  0.29830000  1.0 -0.3390370733
N  N35  1  0.62640000  0.21190000  0.29100000  1.0 -0.3390370733
N  N36  1  0.85390000  0.19530000  0.29510000  1.0 -0.3390370733
N  N37  1  0.77870000  0.19080000  0.59540000  1.0 -0.3318861823
N  N38  1  0.87090000  0.38250000  0.29980000  1.0 -0.3318861823
N  N39  1  0.69120000  0.24680000  0.49330000  1.0 -0.3490297431
N  N40  1  0.73580000  0.28550000  0.36510000  1.0 -0.2276975138
N  N41  1  0.34940000  0.15890000  0.20390000  1.0 -0.3390370733
N  N42  1  0.24120000  0.25970000  0.27130000  1.0 -0.2215505631
N  N43  1  0.22080000  0.23870000  0.40120000  1.0 -0.3318861823
N  N44  1  0.13030000  0.17440000  0.19720000  1.0 -0.3490297431
N  N45  1  0.14580000  0.36150000  0.20100000  1.0 -0.3390370733
N  N46  1  0.37250000  0.34700000  0.20760000  1.0 -0.3390370733
N  N47  1  0.31420000  0.24670000  0.50540000  1.0 -0.3490297431
N  N48  1  0.27070000  0.23220000  0.63500000  1.0 -0.2276975138
N  N49  1  0.24260000  0.80430000  0.22650000  1.0 -0.2276975138
N  N50  1  0.34880000  0.60080000  0.79830000  1.0 -0.3390370733
N  N51  1  0.37360000  0.78810000  0.79100000  1.0 -0.3390370733
N  N52  1  0.14610000  0.80470000  0.79510000  1.0 -0.3390370733
N  N53  1  0.22130000  0.80920000  0.09540000  1.0 -0.3318861823
N  N54  1  0.12910000  0.61750000  0.79980000  1.0 -0.3318861823
N  N55  1  0.30880000  0.75320000  0.99330000  1.0 -0.3490297431
N  N56  1  0.26420000  0.71450000  0.86510000  1.0 -0.2276975138
N  N57  1  0.65060000  0.84110000  0.70390000  1.0 -0.3390370733
N  N58  1  0.75880000  0.74030000  0.77130000  1.0 -0.2215505631
N  N59  1  0.77920000  0.76130000  0.90120000  1.0 -0.3318861823
N  N60  1  0.86970000  0.82560000  0.69720000  1.0 -0.3490297431
N  N61  1  0.85420000  0.63850000  0.70100000  1.0 -0.3390370733
N  N62  1  0.62750000  0.65300000  0.70760000  1.0 -0.3390370733
N  N63  1  0.68580000  0.75330000  0.00540000  1.0 -0.3390370733
N  N64  1  0.72930000  0.76780000  0.13500000  1.0 -0.2276975138
O  O1  1  0.37340000  0.73670000  0.57330000  1.0 -0.4610961978
O  O2  1  0.16730000  0.68350000  0.51450000  1.0 -0.4323494264
O  O3  1  0.83550000  0.71300000  0.47900000  1.0 -0.4493593329
O  O4  1  0.62230000  0.76330000  0.42510000  1.0 -0.4493593329
O  O5  1  0.62660000  0.26330000  0.07330000  1.0 -0.4610961978
O  O6  1  0.83270000  0.31650000  0.01450000  1.0 -0.4323494264
O  O7  1  0.16450000  0.28700000  0.97900000  1.0 -0.4610961978
O  O8  1  0.37770000  0.23670000  0.92510000  1.0 -0.4445117617
O  O9  1  0.62660000  0.23670000  0.57330000  1.0 -0.4610961978
O  O10  1  0.83270000  0.18350000  0.51450000  1.0 -0.4323494264
O  O11  1  0.16450000  0.21300000  0.47900000  1.0 -0.4493593329
O  O12  1  0.37770000  0.26330000  0.42510000  1.0 -0.4493593329
O  O13  1  0.37340000  0.76330000  0.07330000  1.0 -0.4610961978
O  O14  1  0.16730000  0.81650000  0.01450000  1.0 -0.4323494264
O  O15  1  0.83550000  0.78700000  0.97900000  1.0 -0.4610961978
O  O16  1  0.62230000  0.73670000  0.92510000  1.0 -0.4445117617
