# DDEC6 charges by PACMAN v1.1 (https://github.com/mtap-research/PACMAN-charge/)
data_XAWZEE01_FSR_pacman
_symmetry_space_group_name_H-M   'P 1'
_cell_length_a   10.39780000
_cell_length_b   10.45450000
_cell_length_c   15.82510000
_cell_angle_alpha   99.42800000
_cell_angle_beta   92.38700000
_cell_angle_gamma   98.54900000
_symmetry_Int_Tables_number   1
_chemical_formula_structural   FeAg2H10C16(N4O)2
_chemical_formula_sum   'Fe2 Ag4 H20 C32 N16 O4'
_cell_volume   1674.31137457
_cell_formula_units_Z   2
loop_
 _symmetry_equiv_pos_site_id
 _symmetry_equiv_pos_as_xyz
  1  'x, y, z'
loop_
 _atom_site_type_symbol
 _atom_site_label
 _atom_site_symmetry_multiplicity
 _atom_site_fract_x
 _atom_site_fract_y
 _atom_site_fract_z
 _atom_site_occupancy
 _atom_site_charge
Fe  Fe1  1  0.29347000  0.26992000  0.10213000  1.0 0.8203629071
Fe  Fe2  1  0.70653000  0.73008000  0.89787000  1.0 0.8203629071
Ag  Ag1  1  0.31379000  0.77047000  0.09182000  1.0 0.140582707
Ag  Ag2  1  0.79122000  0.26204000  0.09918000  1.0 0.1317256158
Ag  Ag3  1  0.68621000  0.22953000  0.90818000  1.0 0.140582707
Ag  Ag4  1  0.20878000  0.73796000  0.90082000  1.0 0.140582707
H  H1  1  0.21797000  0.13030000  0.67153000  1.0 0.2953565533
H  H2  1  0.32695000  0.42263000  0.53378000  1.0 0.2891087447
H  H3  1  0.16877000  0.07662000  0.94458000  1.0 0.1099649981
H  H4  1  0.15112000  0.05207000  0.79653000  1.0 0.140582707
H  H5  1  0.40392000  0.39230000  0.81448000  1.0 0.140582707
H  H6  1  0.41728000  0.40308000  0.96242000  1.0 0.1099649981
H  H7  1  0.19247000  0.13442000  0.38703000  1.0 0.140582707
H  H8  1  0.19009000  0.12190000  0.24007000  1.0 0.1099649981
H  H9  1  0.38586000  0.47777000  0.26227000  1.0 0.1099649981
H  H10  1  0.38358000  0.50817000  0.41031000  1.0 0.1317256158
H  H11  1  0.78203000  0.86970000  0.32847000  1.0 0.2891087447
H  H12  1  0.67305000  0.57737000  0.46622000  1.0 0.2891087447
H  H13  1  0.83123000  0.92338000  0.05542000  1.0 0.1099649981
H  H14  1  0.84888000  0.94793000  0.20347000  1.0 0.140582707
H  H15  1  0.59608000  0.60770000  0.18552000  1.0 0.140582707
H  H16  1  0.58272000  0.59692000  0.03758000  1.0 0.1099649981
H  H17  1  0.80753000  0.86558000  0.61297000  1.0 0.140582707
H  H18  1  0.80991000  0.87810000  0.75993000  1.0 0.1099649981
H  H19  1  0.61414000  0.52223000  0.73773000  1.0 0.1099649981
H  H20  1  0.61642000  0.49183000  0.58969000  1.0 0.1317256158
C  C1  1  0.21660000  0.14180000  0.91780000  1.0 0.1099649981
C  C2  1  0.20470000  0.12670000  0.82930000  1.0 -0.2549858426
C  C3  1  0.27210000  0.22240000  0.78860000  1.0 0.2768183316
C  C4  1  0.35390000  0.32650000  0.83960000  1.0 -0.2276487534
C  C5  1  0.36060000  0.33210000  0.92820000  1.0 0.0896384253
C  C6  1  0.29440000  0.30050000  0.65140000  1.0 0.3707138786
C  C7  1  0.26660000  0.24840000  0.55450000  1.0 0.3707138786
C  C8  1  0.29130000  0.32330000  0.41640000  1.0 0.2768183316
C  C9  1  0.23220000  0.20700000  0.36320000  1.0 -0.2238468712
C  C10  1  0.23300000  0.20020000  0.27540000  1.0 0.0896384253
C  C11  1  0.34520000  0.40770000  0.28810000  1.0 0.1099649981
C  C12  1  0.34600000  0.42620000  0.37680000  1.0 -0.2580089157
C  C13  1  0.30310000  0.57480000  0.10080000  1.0 0.0080150107
C  C14  1  0.60160000  0.29360000  0.10810000  1.0 0.0002143097
C  C15  1  0.30740000  0.96650000  0.09290000  1.0 -0.0140954245
C  C16  1  0.98390000  0.23950000  0.09590000  1.0 -0.0140954245
C  C17  1  0.78340000  0.85820000  0.08220000  1.0 0.1099649981
C  C18  1  0.79530000  0.87330000  0.17070000  1.0 -0.2549858426
C  C19  1  0.72790000  0.77760000  0.21140000  1.0 0.2768183316
C  C20  1  0.64610000  0.67350000  0.16040000  1.0 -0.2276487534
C  C21  1  0.63940000  0.66790000  0.07180000  1.0 0.0896384253
C  C22  1  0.70560000  0.69950000  0.34860000  1.0 0.3707138786
C  C23  1  0.73340000  0.75160000  0.44550000  1.0 0.3707138786
C  C24  1  0.70870000  0.67670000  0.58360000  1.0 0.2768183316
C  C25  1  0.76780000  0.79300000  0.63680000  1.0 -0.2238468712
C  C26  1  0.76700000  0.79980000  0.72460000  1.0 0.0896384253
C  C27  1  0.65480000  0.59230000  0.71190000  1.0 0.1099649981
C  C28  1  0.65400000  0.57380000  0.62320000  1.0 -0.2580089157
C  C29  1  0.69690000  0.42520000  0.89920000  1.0 0.0080150107
C  C30  1  0.39840000  0.70640000  0.89190000  1.0 -0.0010078701
C  C31  1  0.69260000  0.03350000  0.90710000  1.0 -0.0140954245
C  C32  1  0.01610000  0.76050000  0.90410000  1.0 -0.0140954245
N  N1  1  0.29220000  0.24360000  0.96800000  1.0 -0.2238468712
N  N2  1  0.25630000  0.20740000  0.69920000  1.0 -0.337974753
N  N3  1  0.29880000  0.34250000  0.50630000  1.0 -0.3600378966
N  N4  1  0.29010000  0.29630000  0.23660000  1.0 -0.2238468712
N  N5  1  0.29560000  0.46590000  0.10450000  1.0 -0.337974753
N  N6  1  0.49180000  0.29870000  0.10950000  1.0 -0.337974753
N  N7  1  0.29830000  0.07470000  0.09630000  1.0 -0.3293260967
N  N8  1  0.09410000  0.24060000  0.09490000  1.0 -0.337974753
N  N9  1  0.70780000  0.75640000  0.03200000  1.0 -0.2238468712
N  N10  1  0.74370000  0.79260000  0.30080000  1.0 -0.337974753
N  N11  1  0.70120000  0.65750000  0.49370000  1.0 -0.3600378966
N  N12  1  0.70990000  0.70370000  0.76340000  1.0 -0.2238468712
N  N13  1  0.70440000  0.53410000  0.89550000  1.0 -0.337974753
N  N14  1  0.50820000  0.70130000  0.89050000  1.0 -0.337974753
N  N15  1  0.70170000  0.92530000  0.90370000  1.0 -0.3293260967
N  N16  1  0.90590000  0.75940000  0.90510000  1.0 -0.337974753
O  O1  1  0.34540000  0.41310000  0.67790000  1.0 -0.4424389636
O  O2  1  0.22110000  0.13330000  0.52810000  1.0 -0.4495874529
O  O3  1  0.65460000  0.58690000  0.32210000  1.0 -0.4424389636
O  O4  1  0.77890000  0.86670000  0.47190000  1.0 -0.4495874529
