# DDEC6 charges by PACMAN v1.1 (https://github.com/mtap-research/PACMAN-charge/)
data_XAWZUU_ASR_pacman
_symmetry_space_group_name_H-M   'P 1'
_cell_length_a   13.40520000
_cell_length_b   15.51830000
_cell_length_c   31.27430000
_cell_angle_alpha   90.00000000
_cell_angle_beta   90.00000000
_cell_angle_gamma   90.00000000
_symmetry_Int_Tables_number   1
_chemical_formula_structural   FeAg2H10C16(N4O)2
_chemical_formula_sum   'Fe8 Ag16 H80 C128 N64 O16'
_cell_volume   6505.86487849
_cell_formula_units_Z   8
loop_
 _symmetry_equiv_pos_site_id
 _symmetry_equiv_pos_as_xyz
  1  'x, y, z'
loop_
 _atom_site_type_symbol
 _atom_site_label
 _atom_site_symmetry_multiplicity
 _atom_site_fract_x
 _atom_site_fract_y
 _atom_site_fract_z
 _atom_site_occupancy
 _atom_site_charge
Fe  Fe1  1  0.25116000  0.79536000  0.29600000  1.0 0.5517404021
Fe  Fe2  1  0.74881000  0.75677000  0.20294000  1.0 0.5517404021
Fe  Fe3  1  0.74884000  0.20464000  0.79600000  1.0 0.5517404021
Fe  Fe4  1  0.25119000  0.24323000  0.70294000  1.0 0.5517404021
Fe  Fe5  1  0.74884000  0.29536000  0.29600000  1.0 0.5517404021
Fe  Fe6  1  0.25119000  0.25677000  0.20294000  1.0 0.5517404021
Fe  Fe7  1  0.25116000  0.70464000  0.79600000  1.0 0.5517404021
Fe  Fe8  1  0.74881000  0.74323000  0.70294000  1.0 0.5517404021
Ag  Ag1  1  0.51873000  0.55942000  0.29513000  1.0 0.147011956
Ag  Ag2  1  0.99271000  0.03919000  0.29493000  1.0 0.130655431
Ag  Ag3  1  0.52248000  0.48976000  0.20595000  1.0 0.147011956
Ag  Ag4  1  0.99673000  0.01025000  0.19969000  1.0 0.130655431
Ag  Ag5  1  0.48127000  0.44058000  0.79513000  1.0 0.147011956
Ag  Ag6  1  0.00729000  0.96081000  0.79493000  1.0 0.130655431
Ag  Ag7  1  0.47752000  0.51024000  0.70595000  1.0 0.147011956
Ag  Ag8  1  0.00327000  0.98975000  0.69969000  1.0 0.130655431
Ag  Ag9  1  0.48127000  0.05942000  0.29513000  1.0 0.147011956
Ag  Ag10  1  0.00729000  0.53919000  0.29493000  1.0 0.130655431
Ag  Ag11  1  0.47752000  0.98976000  0.20595000  1.0 0.147011956
Ag  Ag12  1  0.00327000  0.51025000  0.19969000  1.0 0.130655431
Ag  Ag13  1  0.51873000  0.94058000  0.79513000  1.0 0.147011956
Ag  Ag14  1  0.99271000  0.46081000  0.79493000  1.0 0.130655431
Ag  Ag15  1  0.52248000  0.01024000  0.70595000  1.0 0.147011956
Ag  Ag16  1  0.99673000  0.48975000  0.69969000  1.0 0.130655431
H  H1  1  0.16196000  0.68010000  0.58737000  1.0 0.2888314163
H  H2  1  0.09466000  0.69876000  0.72749000  1.0 0.111775231
H  H3  1  0.38840000  0.70078000  0.72069000  1.0 0.111775231
H  H4  1  0.08172000  0.69490000  0.65357000  1.0 0.130655431
H  H5  1  0.13988000  0.74396000  0.44683000  1.0 0.147011956
H  H6  1  0.36928000  0.76504000  0.50176000  1.0 0.2888314163
H  H7  1  0.12362000  0.76708000  0.37416000  1.0 0.1169760318
H  H8  1  0.43763000  0.78604000  0.43327000  1.0 0.1410380525
H  H9  1  0.38424000  0.70084000  0.64657000  1.0 0.1410380525
H  H10  1  0.41123000  0.80752000  0.36114000  1.0 0.1169760318
H  H11  1  0.61845000  0.74118000  0.35148000  1.0 0.1410380525
H  H12  1  0.61386000  0.74832000  0.27699000  1.0 0.111775231
H  H13  1  0.90696000  0.75453000  0.27017000  1.0 0.1169760318
H  H14  1  0.84380000  0.73145000  0.40994000  1.0 0.2888314163
H  H15  1  0.55994000  0.76704000  0.56765000  1.0 0.1410380525
H  H16  1  0.62680000  0.76831000  0.49906000  1.0 0.2888314163
H  H17  1  0.92087000  0.74738000  0.34367000  1.0 0.130655431
H  H18  1  0.85439000  0.71919000  0.55068000  1.0 0.147011956
H  H19  1  0.58653000  0.76134000  0.64053000  1.0 0.1169760318
H  H20  1  0.87242000  0.71469000  0.62430000  1.0 0.1169760318
H  H21  1  0.83804000  0.31990000  0.08737000  1.0 0.2888314163
H  H22  1  0.90534000  0.30124000  0.22749000  1.0 0.111775231
H  H23  1  0.61160000  0.29922000  0.22069000  1.0 0.111775231
H  H24  1  0.91828000  0.30510000  0.15357000  1.0 0.130655431
H  H25  1  0.86012000  0.25604000  0.94683000  1.0 0.147011956
H  H26  1  0.63072000  0.23496000  0.00176000  1.0 0.2888314163
H  H27  1  0.87638000  0.23292000  0.87416000  1.0 0.1169760318
H  H28  1  0.56237000  0.21396000  0.93327000  1.0 0.1410380525
H  H29  1  0.61576000  0.29916000  0.14657000  1.0 0.1410380525
H  H30  1  0.58877000  0.19248000  0.86114000  1.0 0.1169760318
H  H31  1  0.38155000  0.25882000  0.85148000  1.0 0.1410380525
H  H32  1  0.38614000  0.25168000  0.77699000  1.0 0.111775231
H  H33  1  0.09304000  0.24547000  0.77017000  1.0 0.1169760318
H  H34  1  0.15620000  0.26855000  0.90994000  1.0 0.2888314163
H  H35  1  0.44006000  0.23296000  0.06765000  1.0 0.1410380525
H  H36  1  0.37320000  0.23169000  0.99906000  1.0 0.2888314163
H  H37  1  0.07913000  0.25262000  0.84367000  1.0 0.130655431
H  H38  1  0.14561000  0.28081000  0.05068000  1.0 0.147011956
H  H39  1  0.41347000  0.23866000  0.14053000  1.0 0.1169760318
H  H40  1  0.12758000  0.28531000  0.12430000  1.0 0.1169760318
H  H41  1  0.83804000  0.18010000  0.58737000  1.0 0.2888314163
H  H42  1  0.90534000  0.19876000  0.72749000  1.0 0.111775231
H  H43  1  0.61160000  0.20078000  0.72069000  1.0 0.111775231
H  H44  1  0.91828000  0.19490000  0.65357000  1.0 0.130655431
H  H45  1  0.86012000  0.24396000  0.44683000  1.0 0.147011956
H  H46  1  0.63072000  0.26504000  0.50176000  1.0 0.2888314163
H  H47  1  0.87638000  0.26708000  0.37416000  1.0 0.1169760318
H  H48  1  0.56237000  0.28604000  0.43327000  1.0 0.1410380525
H  H49  1  0.61576000  0.20084000  0.64657000  1.0 0.1410380525
H  H50  1  0.58877000  0.30752000  0.36114000  1.0 0.1169760318
H  H51  1  0.38155000  0.24118000  0.35148000  1.0 0.1410380525
H  H52  1  0.38614000  0.24832000  0.27699000  1.0 0.111775231
H  H53  1  0.09304000  0.25453000  0.27017000  1.0 0.1169760318
H  H54  1  0.15620000  0.23145000  0.40994000  1.0 0.2888314163
H  H55  1  0.44006000  0.26704000  0.56765000  1.0 0.1410380525
H  H56  1  0.37320000  0.26831000  0.49906000  1.0 0.2888314163
H  H57  1  0.07913000  0.24738000  0.34367000  1.0 0.130655431
H  H58  1  0.14561000  0.21919000  0.55068000  1.0 0.147011956
H  H59  1  0.41347000  0.26134000  0.64053000  1.0 0.1169760318
H  H60  1  0.12758000  0.21469000  0.62430000  1.0 0.1169760318
H  H61  1  0.16196000  0.81990000  0.08737000  1.0 0.2888314163
H  H62  1  0.09466000  0.80124000  0.22749000  1.0 0.111775231
H  H63  1  0.38840000  0.79922000  0.22069000  1.0 0.111775231
H  H64  1  0.08172000  0.80510000  0.15357000  1.0 0.130655431
H  H65  1  0.13988000  0.75604000  0.94683000  1.0 0.147011956
H  H66  1  0.36928000  0.73496000  0.00176000  1.0 0.2888314163
H  H67  1  0.12362000  0.73292000  0.87416000  1.0 0.1169760318
H  H68  1  0.43763000  0.71396000  0.93327000  1.0 0.1410380525
H  H69  1  0.38424000  0.79916000  0.14657000  1.0 0.1410380525
H  H70  1  0.41123000  0.69248000  0.86114000  1.0 0.1169760318
H  H71  1  0.61845000  0.75882000  0.85148000  1.0 0.1410380525
H  H72  1  0.61386000  0.75168000  0.77699000  1.0 0.111775231
H  H73  1  0.90696000  0.74547000  0.77017000  1.0 0.1169760318
H  H74  1  0.84380000  0.76855000  0.90994000  1.0 0.2888314163
H  H75  1  0.55994000  0.73296000  0.06765000  1.0 0.1410380525
H  H76  1  0.62680000  0.73169000  0.99906000  1.0 0.2888314163
H  H77  1  0.92087000  0.75262000  0.84367000  1.0 0.130655431
H  H78  1  0.85439000  0.78081000  0.05068000  1.0 0.147011956
H  H79  1  0.58653000  0.73866000  0.14053000  1.0 0.1169760318
H  H80  1  0.87242000  0.78531000  0.12430000  1.0 0.1169760318
C  C1  1  0.15400000  0.69810000  0.71086000  1.0 0.0859482156
C  C2  1  0.32540000  0.69980000  0.70680000  1.0 0.0810918942
C  C3  1  0.14560000  0.69650000  0.66666667  1.0 -0.256984642
C  C4  1  0.19700000  0.75610000  0.42990000  1.0 -0.2194307319
C  C5  1  0.18840000  0.77000000  0.38638000  1.0 0.0810918942
C  C6  1  0.23180000  0.69720000  0.64156000  1.0 0.2781853022
C  C7  1  0.29060000  0.71650000  0.56726000  1.0 0.3706888014
C  C8  1  0.24680000  0.71310000  0.52160000  1.0 0.3706888014
C  C9  1  0.08460000  0.93210000  0.29800000  1.0 -0.0286978296
C  C10  1  0.37230000  0.78090000  0.42183000  1.0 -0.2464535816
C  C11  1  0.42020000  0.66110000  0.29320000  1.0 -0.0286978296
C  C12  1  0.32380000  0.69950000  0.66244000  1.0 -0.2297873332
C  C13  1  0.35570000  0.79360000  0.37870000  1.0 0.098549999
C  C14  1  0.10030000  0.64490000  0.29570000  1.0 -0.0286978296
C  C15  1  0.29240000  0.76040000  0.44837000  1.0 0.2696344496
C  C16  1  0.39330000  0.95120000  0.29800000  1.0 -0.0286978296
C  C17  1  0.67850000  0.74440000  0.33542000  1.0 -0.2297873332
C  C18  1  0.67680000  0.74860000  0.29092000  1.0 0.0810918942
C  C19  1  0.60990000  0.59830000  0.20380000  1.0 -0.0286978296
C  C20  1  0.84780000  0.75220000  0.28690000  1.0 0.0810918942
C  C21  1  0.75480000  0.74000000  0.47560000  1.0 0.3773586468
C  C22  1  0.62510000  0.75750000  0.57856000  1.0 -0.2464535816
C  C23  1  0.77130000  0.74530000  0.35558000  1.0 0.2696344496
C  C24  1  0.70630000  0.74690000  0.55087000  1.0 0.2641590626
C  C25  1  0.71100000  0.75090000  0.43029000  1.0 0.3773586468
C  C26  1  0.85680000  0.74820000  0.33066000  1.0 -0.256984642
C  C27  1  0.79830000  0.72930000  0.56858000  1.0 -0.2194307319
C  C28  1  0.90090000  0.90640000  0.20000000  1.0 -0.0286978296
C  C29  1  0.57790000  0.89000000  0.20680000  1.0 -0.0286978296
C  C30  1  0.64190000  0.75370000  0.62195000  1.0 0.098549999
C  C31  1  0.91140000  0.61670000  0.19780000  1.0 -0.0286978296
C  C32  1  0.80850000  0.72660000  0.61263000  1.0 0.0810918942
C  C33  1  0.84600000  0.30190000  0.21086000  1.0 0.0859482156
C  C34  1  0.67460000  0.30020000  0.20680000  1.0 0.0810918942
C  C35  1  0.85440000  0.30350000  0.16667000  1.0 -0.256984642
C  C36  1  0.80300000  0.24390000  0.92990000  1.0 -0.2194307319
C  C37  1  0.81160000  0.23000000  0.88638000  1.0 0.0810918942
C  C38  1  0.76820000  0.30280000  0.14156000  1.0 0.2781853022
C  C39  1  0.70940000  0.28350000  0.06726000  1.0 0.3706888014
C  C40  1  0.75320000  0.28690000  0.02160000  1.0 0.3706888014
C  C41  1  0.91540000  0.06790000  0.79800000  1.0 -0.0286978296
C  C42  1  0.62770000  0.21910000  0.92183000  1.0 -0.2464535816
C  C43  1  0.57980000  0.33890000  0.79320000  1.0 -0.0286978296
C  C44  1  0.67620000  0.30050000  0.16244000  1.0 -0.2297873332
C  C45  1  0.64430000  0.20640000  0.87870000  1.0 0.098549999
C  C46  1  0.89970000  0.35510000  0.79570000  1.0 -0.0286978296
C  C47  1  0.70760000  0.23960000  0.94837000  1.0 0.2696344496
C  C48  1  0.60670000  0.04880000  0.79800000  1.0 -0.0238679277
C  C49  1  0.32150000  0.25560000  0.83542000  1.0 -0.2297873332
C  C50  1  0.32320000  0.25140000  0.79092000  1.0 0.0810918942
C  C51  1  0.39010000  0.40170000  0.70380000  1.0 -0.0286978296
C  C52  1  0.15220000  0.24780000  0.78690000  1.0 0.0810918942
C  C53  1  0.24520000  0.26000000  0.97560000  1.0 0.3773586468
C  C54  1  0.37490000  0.24250000  0.07856000  1.0 -0.2447537317
C  C55  1  0.22870000  0.25470000  0.85558000  1.0 0.2696344496
C  C56  1  0.29370000  0.25310000  0.05087000  1.0 0.2641590626
C  C57  1  0.28900000  0.24910000  0.93029000  1.0 0.3773586468
C  C58  1  0.14320000  0.25180000  0.83066000  1.0 -0.256984642
C  C59  1  0.20170000  0.27070000  0.06858000  1.0 -0.2194307319
C  C60  1  0.09910000  0.09360000  0.70000000  1.0 -0.0286978296
C  C61  1  0.42210000  0.11000000  0.70680000  1.0 -0.0286978296
C  C62  1  0.35810000  0.24630000  0.12195000  1.0 0.098549999
C  C63  1  0.08860000  0.38330000  0.69780000  1.0 -0.0286978296
C  C64  1  0.19150000  0.27340000  0.11263000  1.0 0.0810918942
C  C65  1  0.84600000  0.19810000  0.71086000  1.0 0.0859482156
C  C66  1  0.67460000  0.19980000  0.70680000  1.0 0.0810918942
C  C67  1  0.85440000  0.19650000  0.66666667  1.0 -0.256984642
C  C68  1  0.80300000  0.25610000  0.42990000  1.0 -0.2194307319
C  C69  1  0.81160000  0.27000000  0.38638000  1.0 0.0810918942
C  C70  1  0.76820000  0.19720000  0.64156000  1.0 0.2781853022
C  C71  1  0.70940000  0.21650000  0.56726000  1.0 0.3706888014
C  C72  1  0.75320000  0.21310000  0.52160000  1.0 0.3706888014
C  C73  1  0.91540000  0.43210000  0.29800000  1.0 -0.0286978296
C  C74  1  0.62770000  0.28090000  0.42183000  1.0 -0.2464535816
C  C75  1  0.57980000  0.16110000  0.29320000  1.0 -0.0286978296
C  C76  1  0.67620000  0.19950000  0.66244000  1.0 -0.2297873332
C  C77  1  0.64430000  0.29360000  0.37870000  1.0 0.098549999
C  C78  1  0.89970000  0.14490000  0.29570000  1.0 -0.0286978296
C  C79  1  0.70760000  0.26040000  0.44837000  1.0 0.2696344496
C  C80  1  0.60670000  0.45120000  0.29800000  1.0 -0.0286978296
C  C81  1  0.32150000  0.24440000  0.33542000  1.0 -0.2297873332
C  C82  1  0.32320000  0.24860000  0.29092000  1.0 0.0810918942
C  C83  1  0.39010000  0.09830000  0.20380000  1.0 -0.0286978296
C  C84  1  0.15220000  0.25220000  0.28690000  1.0 0.0810918942
C  C85  1  0.24520000  0.24000000  0.47560000  1.0 0.3773586468
C  C86  1  0.37490000  0.25750000  0.57856000  1.0 -0.2464535816
C  C87  1  0.22870000  0.24530000  0.35558000  1.0 0.2696344496
C  C88  1  0.29370000  0.24690000  0.55087000  1.0 0.2641590626
C  C89  1  0.28900000  0.25090000  0.43029000  1.0 0.3773586468
C  C90  1  0.14320000  0.24820000  0.33066000  1.0 -0.256984642
C  C91  1  0.20170000  0.22930000  0.56858000  1.0 -0.2194307319
C  C92  1  0.09910000  0.40640000  0.20000000  1.0 -0.0286978296
C  C93  1  0.42210000  0.39000000  0.20680000  1.0 -0.0286978296
C  C94  1  0.35810000  0.25370000  0.62195000  1.0 0.098549999
C  C95  1  0.08860000  0.11670000  0.19780000  1.0 -0.0286978296
C  C96  1  0.19150000  0.22660000  0.61263000  1.0 0.0810918942
C  C97  1  0.15400000  0.80190000  0.21086000  1.0 0.0859482156
C  C98  1  0.32540000  0.80020000  0.20680000  1.0 0.0810918942
C  C99  1  0.14560000  0.80350000  0.16667000  1.0 -0.256984642
C  C100  1  0.19700000  0.74390000  0.92990000  1.0 -0.2194307319
C  C101  1  0.18840000  0.73000000  0.88638000  1.0 0.0810918942
C  C102  1  0.23180000  0.80280000  0.14156000  1.0 0.2781853022
C  C103  1  0.29060000  0.78350000  0.06726000  1.0 0.3706888014
C  C104  1  0.24680000  0.78690000  0.02160000  1.0 0.3706888014
C  C105  1  0.08460000  0.56790000  0.79800000  1.0 -0.0286978296
C  C106  1  0.37230000  0.71910000  0.92183000  1.0 -0.2464535816
C  C107  1  0.42020000  0.83890000  0.79320000  1.0 -0.0286978296
C  C108  1  0.32380000  0.80050000  0.16244000  1.0 -0.2297873332
C  C109  1  0.35570000  0.70640000  0.87870000  1.0 0.098549999
C  C110  1  0.10030000  0.85510000  0.79570000  1.0 -0.0286978296
C  C111  1  0.29240000  0.73960000  0.94837000  1.0 0.2696344496
C  C112  1  0.39330000  0.54880000  0.79800000  1.0 -0.0286978296
C  C113  1  0.67850000  0.75560000  0.83542000  1.0 -0.2297873332
C  C114  1  0.67680000  0.75140000  0.79092000  1.0 0.0810918942
C  C115  1  0.60990000  0.90170000  0.70380000  1.0 -0.0286978296
C  C116  1  0.84780000  0.74780000  0.78690000  1.0 0.0859482156
C  C117  1  0.75480000  0.76000000  0.97560000  1.0 0.3773586468
C  C118  1  0.62510000  0.74250000  0.07856000  1.0 -0.2447537317
C  C119  1  0.77130000  0.75470000  0.85558000  1.0 0.2696344496
C  C120  1  0.70630000  0.75310000  0.05087000  1.0 0.2641590626
C  C121  1  0.71100000  0.74910000  0.93029000  1.0 0.3773586468
C  C122  1  0.85680000  0.75180000  0.83066000  1.0 -0.256984642
C  C123  1  0.79830000  0.77070000  0.06858000  1.0 -0.2194307319
C  C124  1  0.90090000  0.59360000  0.70000000  1.0 -0.0286978296
C  C125  1  0.57790000  0.61000000  0.70680000  1.0 -0.0286978296
C  C126  1  0.64190000  0.74630000  0.12195000  1.0 0.098549999
C  C127  1  0.91140000  0.88330000  0.69780000  1.0 -0.0286978296
C  C128  1  0.80850000  0.77340000  0.11263000  1.0 0.0810918942
N  N1  1  0.24290000  0.69880000  0.73131000  1.0 -0.1381985007
N  N2  1  0.34340000  0.89120000  0.29626000  1.0 -0.2870402784
N  N3  1  0.35950000  0.71300000  0.29194000  1.0 -0.2835853817
N  N4  1  0.15550000  0.70110000  0.29596000  1.0 -0.2835853817
N  N5  1  0.22070000  0.69590000  0.59713000  1.0 -0.3325967549
N  N6  1  0.14320000  0.87880000  0.29942000  1.0 -0.2870402784
N  N7  1  0.31070000  0.74830000  0.49219000  1.0 -0.351521766
N  N8  1  0.26540000  0.78740000  0.36009000  1.0 -0.1477696433
N  N9  1  0.65800000  0.65950000  0.20472000  1.0 -0.2835853817
N  N10  1  0.75930000  0.75290000  0.26660000  1.0 -0.1381985007
N  N11  1  0.78310000  0.74130000  0.40043000  1.0 -0.3325967549
N  N12  1  0.85610000  0.67270000  0.19835000  1.0 -0.2870402784
N  N13  1  0.84450000  0.85100000  0.20107000  1.0 -0.2835853817
N  N14  1  0.64020000  0.83880000  0.20685000  1.0 -0.2835853817
N  N15  1  0.68760000  0.75380000  0.50689000  1.0 -0.3403021632
N  N16  1  0.73210000  0.74000000  0.63963000  1.0 -0.1477696433
N  N17  1  0.75710000  0.30120000  0.23131000  1.0 -0.1381985007
N  N18  1  0.65660000  0.10880000  0.79626000  1.0 -0.2870402784
N  N19  1  0.64050000  0.28700000  0.79194000  1.0 -0.2835853817
N  N20  1  0.84450000  0.29890000  0.79596000  1.0 -0.2870402784
N  N21  1  0.77930000  0.30410000  0.09713000  1.0 -0.3403021632
N  N22  1  0.85680000  0.12120000  0.79942000  1.0 -0.2870402784
N  N23  1  0.68930000  0.25170000  0.99219000  1.0 -0.351521766
N  N24  1  0.73460000  0.21260000  0.86009000  1.0 -0.1477696433
N  N25  1  0.34200000  0.34050000  0.70472000  1.0 -0.2835853817
N  N26  1  0.24070000  0.24710000  0.76660000  1.0 -0.1381985007
N  N27  1  0.21690000  0.25870000  0.90043000  1.0 -0.3325967549
N  N28  1  0.14390000  0.32730000  0.69835000  1.0 -0.2870402784
N  N29  1  0.15550000  0.14900000  0.70107000  1.0 -0.2835853817
N  N30  1  0.35980000  0.16120000  0.70685000  1.0 -0.2835853817
N  N31  1  0.31240000  0.24620000  0.00689000  1.0 -0.3403021632
N  N32  1  0.26790000  0.26000000  0.13963000  1.0 -0.1477696433
N  N33  1  0.75710000  0.19880000  0.73131000  1.0 -0.1381985007
N  N34  1  0.65660000  0.39120000  0.29626000  1.0 -0.2835853817
N  N35  1  0.64050000  0.21300000  0.29194000  1.0 -0.2835853817
N  N36  1  0.84450000  0.20110000  0.29596000  1.0 -0.2835853817
N  N37  1  0.77930000  0.19590000  0.59713000  1.0 -0.3325967549
N  N38  1  0.85680000  0.37880000  0.29942000  1.0 -0.2870402784
N  N39  1  0.68930000  0.24830000  0.49219000  1.0 -0.351521766
N  N40  1  0.73460000  0.28740000  0.36009000  1.0 -0.1477696433
N  N41  1  0.34200000  0.15950000  0.20472000  1.0 -0.2835853817
N  N42  1  0.24070000  0.25290000  0.26660000  1.0 -0.1381985007
N  N43  1  0.21690000  0.24130000  0.40043000  1.0 -0.3325967549
N  N44  1  0.14390000  0.17270000  0.19835000  1.0 -0.2870402784
N  N45  1  0.15550000  0.35100000  0.20107000  1.0 -0.2835853817
N  N46  1  0.35980000  0.33880000  0.20685000  1.0 -0.2835853817
N  N47  1  0.31240000  0.25380000  0.50689000  1.0 -0.351521766
N  N48  1  0.26790000  0.24000000  0.63963000  1.0 -0.1477696433
N  N49  1  0.24290000  0.80120000  0.23131000  1.0 -0.1381985007
N  N50  1  0.34340000  0.60880000  0.79626000  1.0 -0.2870402784
N  N51  1  0.35950000  0.78700000  0.79194000  1.0 -0.2835853817
N  N52  1  0.15550000  0.79890000  0.79596000  1.0 -0.2870402784
N  N53  1  0.22070000  0.80410000  0.09713000  1.0 -0.3403021632
N  N54  1  0.14320000  0.62120000  0.79942000  1.0 -0.2870402784
N  N55  1  0.31070000  0.75170000  0.99219000  1.0 -0.351521766
N  N56  1  0.26540000  0.71260000  0.86009000  1.0 -0.1477696433
N  N57  1  0.65800000  0.84050000  0.70472000  1.0 -0.2835853817
N  N58  1  0.75930000  0.74710000  0.76660000  1.0 -0.1381985007
N  N59  1  0.78310000  0.75870000  0.90043000  1.0 -0.3325967549
N  N60  1  0.85610000  0.82730000  0.69835000  1.0 -0.2870402784
N  N61  1  0.84450000  0.64900000  0.70107000  1.0 -0.2835853817
N  N62  1  0.64020000  0.66120000  0.70685000  1.0 -0.2835853817
N  N63  1  0.68760000  0.74620000  0.00689000  1.0 -0.3403021632
N  N64  1  0.73210000  0.76000000  0.13963000  1.0 -0.1477696433
O  O1  1  0.37650000  0.73700000  0.57417000  1.0 -0.4508036632
O  O2  1  0.16620000  0.68290000  0.51392000  1.0 -0.4164590968
O  O3  1  0.84170000  0.72050000  0.48020000  1.0 -0.4508036632
O  O4  1  0.62270000  0.76280000  0.42432000  1.0 -0.4561814029
O  O5  1  0.62350000  0.26300000  0.07417000  1.0 -0.4508036632
O  O6  1  0.83380000  0.31710000  0.01392000  1.0 -0.4164590968
O  O7  1  0.15830000  0.27950000  0.98020000  1.0 -0.4508036632
O  O8  1  0.37730000  0.23720000  0.92432000  1.0 -0.4561814029
O  O9  1  0.62350000  0.23700000  0.57417000  1.0 -0.4508036632
O  O10  1  0.83380000  0.18290000  0.51392000  1.0 -0.4164590968
O  O11  1  0.15830000  0.22050000  0.48020000  1.0 -0.4508036632
O  O12  1  0.37730000  0.26280000  0.42432000  1.0 -0.4561814029
O  O13  1  0.37650000  0.76300000  0.07417000  1.0 -0.4508036632
O  O14  1  0.16620000  0.81710000  0.01392000  1.0 -0.4164590968
O  O15  1  0.84170000  0.77950000  0.98020000  1.0 -0.4508036632
O  O16  1  0.62270000  0.73720000  0.92432000  1.0 -0.4508036632
