# DDEC6 charges by PACMAN v1.1 (https://github.com/mtap-research/PACMAN-charge/)
data_XAWZEE_FSR_pacman
_symmetry_space_group_name_H-M   'P 1'
_cell_length_a   10.23130000
_cell_length_b   10.26430000
_cell_length_c   15.66640000
_cell_angle_alpha   99.67800000
_cell_angle_beta   91.42300000
_cell_angle_gamma   97.46800000
_symmetry_Int_Tables_number   1
_chemical_formula_structural   FeAg2H10C16(N4O)2
_chemical_formula_sum   'Fe2 Ag4 H20 C32 N16 O4'
_cell_volume   1606.23328610
_cell_formula_units_Z   2
loop_
 _symmetry_equiv_pos_site_id
 _symmetry_equiv_pos_as_xyz
  1  'x, y, z'
loop_
 _atom_site_type_symbol
 _atom_site_label
 _atom_site_symmetry_multiplicity
 _atom_site_fract_x
 _atom_site_fract_y
 _atom_site_fract_z
 _atom_site_occupancy
 _atom_site_charge
Fe  Fe1  1  0.29113000  0.26984000  0.10270000  1.0 0.5576087281
Fe  Fe2  1  0.70887000  0.73016000  0.89730000  1.0 0.5546970412
Ag  Ag1  1  0.30962000  0.76977000  0.09227000  1.0 0.1417254637
Ag  Ag2  1  0.78949000  0.26332000  0.09955000  1.0 0.1329240583
Ag  Ag3  1  0.69038000  0.23023000  0.90773000  1.0 0.1417254637
Ag  Ag4  1  0.21051000  0.73668000  0.90045000  1.0 0.1329240583
H  H1  1  0.21894000  0.12824000  0.67342000  1.0 0.297602956
H  H2  1  0.32617000  0.42493000  0.53341000  1.0 0.289427866
H  H3  1  0.42156000  0.39992000  0.96490000  1.0 0.1171295809
H  H4  1  0.18414000  0.12140000  0.23848000  1.0 0.1171295809
H  H5  1  0.40830000  0.38892000  0.81643000  1.0 0.1417254637
H  H6  1  0.14546000  0.05381000  0.80109000  1.0 0.1417254637
H  H7  1  0.18504000  0.13662000  0.38705000  1.0 0.1417254637
H  H8  1  0.38973000  0.47712000  0.25830000  1.0 0.1171295809
H  H9  1  0.38526000  0.50959000  0.40752000  1.0 0.1329240583
H  H10  1  0.16285000  0.07754000  0.95015000  1.0 0.1171295809
H  H11  1  0.78106000  0.87176000  0.32658000  1.0 0.297602956
H  H12  1  0.67383000  0.57507000  0.46659000  1.0 0.289427866
H  H13  1  0.57844000  0.60008000  0.03510000  1.0 0.1171295809
H  H14  1  0.81586000  0.87860000  0.76152000  1.0 0.1171295809
H  H15  1  0.59170000  0.61108000  0.18357000  1.0 0.1417254637
H  H16  1  0.85454000  0.94619000  0.19891000  1.0 0.1417254637
H  H17  1  0.81496000  0.86338000  0.61295000  1.0 0.1464899227
H  H18  1  0.61027000  0.52288000  0.74170000  1.0 0.1171295809
H  H19  1  0.61474000  0.49041000  0.59248000  1.0 0.1329240583
H  H20  1  0.83715000  0.92246000  0.04985000  1.0 0.1171295809
C  C1  1  0.36240000  0.33010000  0.93120000  1.0 0.0785855695
C  C2  1  0.22840000  0.20020000  0.27340000  1.0 0.0785855695
C  C3  1  0.98800000  0.24350000  0.09850000  1.0 -0.0196412213
C  C4  1  0.35590000  0.32420000  0.84230000  1.0 -0.2292212278
C  C5  1  0.27210000  0.22250000  0.79190000  1.0 0.2683062225
C  C6  1  0.29860000  0.57100000  0.10190000  1.0 -0.0196412213
C  C7  1  0.20100000  0.12760000  0.83380000  1.0 -0.248683925
C  C8  1  0.30410000  0.96950000  0.09320000  1.0 -0.0367141191
C  C9  1  0.28910000  0.32430000  0.41480000  1.0 0.2683062225
C  C10  1  0.22720000  0.20840000  0.36220000  1.0 -0.2223426953
C  C11  1  0.34630000  0.40770000  0.28470000  1.0 0.0967948518
C  C12  1  0.34650000  0.42710000  0.37410000  1.0 -0.2557923303
C  C13  1  0.21250000  0.14230000  0.92280000  1.0 0.0898360431
C  C14  1  0.59490000  0.29180000  0.10680000  1.0 -0.0196412213
C  C15  1  0.26450000  0.24940000  0.55520000  1.0 0.3763089224
C  C16  1  0.29440000  0.30170000  0.65270000  1.0 0.367281799
C  C17  1  0.63760000  0.66990000  0.06880000  1.0 0.0785855695
C  C18  1  0.77160000  0.79980000  0.72660000  1.0 0.0785855695
C  C19  1  0.01200000  0.75650000  0.90150000  1.0 -0.0196412213
C  C20  1  0.64410000  0.67580000  0.15770000  1.0 -0.2292212278
C  C21  1  0.72790000  0.77750000  0.20810000  1.0 0.2683062225
C  C22  1  0.70140000  0.42900000  0.89810000  1.0 -0.0196412213
C  C23  1  0.79900000  0.87240000  0.16620000  1.0 -0.248683925
C  C24  1  0.69590000  0.03050000  0.90680000  1.0 -0.0367141191
C  C25  1  0.71090000  0.67570000  0.58520000  1.0 0.2683062225
C  C26  1  0.77280000  0.79160000  0.63780000  1.0 -0.2223426953
C  C27  1  0.65370000  0.59230000  0.71530000  1.0 0.0967948518
C  C28  1  0.65350000  0.57290000  0.62590000  1.0 -0.2557923303
C  C29  1  0.78750000  0.85770000  0.07720000  1.0 0.0898360431
C  C30  1  0.40510000  0.70820000  0.89320000  1.0 -0.0196412213
C  C31  1  0.73550000  0.75060000  0.44480000  1.0 0.3763089224
C  C32  1  0.70560000  0.69830000  0.34730000  1.0 0.367281799
N  N1  1  0.09880000  0.24600000  0.09780000  1.0 -0.2872540112
N  N2  1  0.29070000  0.24380000  0.97320000  1.0 -0.1419585824
N  N3  1  0.28800000  0.29590000  0.23270000  1.0 -0.1476764038
N  N4  1  0.29300000  0.45970000  0.10510000  1.0 -0.2872540112
N  N5  1  0.48260000  0.29350000  0.10740000  1.0 -0.2872540112
N  N6  1  0.29550000  0.08050000  0.09660000  1.0 -0.2872540112
N  N7  1  0.25640000  0.20640000  0.70120000  1.0 -0.3430764035
N  N8  1  0.29720000  0.34390000  0.50600000  1.0 -0.3608160868
N  N9  1  0.90120000  0.75400000  0.90220000  1.0 -0.2872540112
N  N10  1  0.70930000  0.75620000  0.02680000  1.0 -0.1419585824
N  N11  1  0.71200000  0.70410000  0.76730000  1.0 -0.1476764038
N  N12  1  0.70700000  0.54030000  0.89490000  1.0 -0.284241195
N  N13  1  0.51740000  0.70650000  0.89260000  1.0 -0.2872540112
N  N14  1  0.70450000  0.91950000  0.90340000  1.0 -0.284241195
N  N15  1  0.74360000  0.79360000  0.29880000  1.0 -0.3430764035
N  N16  1  0.70280000  0.65610000  0.49400000  1.0 -0.3547466353
O  O1  1  0.21730000  0.13330000  0.52890000  1.0 -0.4488029435
O  O2  1  0.34660000  0.41460000  0.67890000  1.0 -0.4388426796
O  O3  1  0.78270000  0.86670000  0.47110000  1.0 -0.4388426796
O  O4  1  0.65340000  0.58540000  0.32110000  1.0 -0.4388426796
