# DDEC6 charges by PACMAN v1.1 (https://github.com/mtap-research/PACMAN-charge/)
data_XAWZUU01_ASR_pacman
_symmetry_space_group_name_H-M   'P 1'
_cell_length_a   13.49240000
_cell_length_b   15.86590000
_cell_length_c   31.59500000
_cell_angle_alpha   90.00000000
_cell_angle_beta   90.00000000
_cell_angle_gamma   90.00000000
_symmetry_Int_Tables_number   1
_chemical_formula_structural   FeAg2H10C16(N4O)2
_chemical_formula_sum   'Fe8 Ag16 H80 C128 N64 O16'
_cell_volume   6763.51224011
_cell_formula_units_Z   8
loop_
 _symmetry_equiv_pos_site_id
 _symmetry_equiv_pos_as_xyz
  1  'x, y, z'
loop_
 _atom_site_type_symbol
 _atom_site_label
 _atom_site_symmetry_multiplicity
 _atom_site_fract_x
 _atom_site_fract_y
 _atom_site_fract_z
 _atom_site_occupancy
 _atom_site_charge
Fe  Fe1  1  0.25059000  0.79681000  0.29608000  1.0 0.8107839368
Fe  Fe2  1  0.74917000  0.76151000  0.20311000  1.0 0.8107839368
Fe  Fe3  1  0.74941000  0.20319000  0.79608000  1.0 0.8107839368
Fe  Fe4  1  0.25083000  0.23849000  0.70311000  1.0 0.8107839368
Fe  Fe5  1  0.74941000  0.29681000  0.29608000  1.0 0.8107839368
Fe  Fe6  1  0.25083000  0.26151000  0.20311000  1.0 0.8031374443
Fe  Fe7  1  0.25059000  0.70319000  0.79608000  1.0 0.8107839368
Fe  Fe8  1  0.74917000  0.73849000  0.70311000  1.0 0.8107839368
Ag  Ag1  1  0.52227000  0.56341000  0.29540000  1.0 0.1493486281
Ag  Ag2  1  0.99040000  0.03853000  0.29457000  1.0 0.1321782716
Ag  Ag3  1  0.52450000  0.49326000  0.20624000  1.0 0.1493486281
Ag  Ag4  1  0.99761000  0.01560000  0.19946000  1.0 0.1389889441
Ag  Ag5  1  0.47773000  0.43659000  0.79540000  1.0 0.1493486281
Ag  Ag6  1  0.00960000  0.96147000  0.79457000  1.0 0.1321782716
Ag  Ag7  1  0.47550000  0.50674000  0.70624000  1.0 0.1493486281
Ag  Ag8  1  0.00239000  0.98440000  0.69946000  1.0 0.1389889441
Ag  Ag9  1  0.47773000  0.06341000  0.29540000  1.0 0.1493486281
Ag  Ag10  1  0.00960000  0.53853000  0.29457000  1.0 0.1321782716
Ag  Ag11  1  0.47550000  0.99326000  0.20624000  1.0 0.1493486281
Ag  Ag12  1  0.00239000  0.51560000  0.19946000  1.0 0.1389889441
Ag  Ag13  1  0.52227000  0.93659000  0.79540000  1.0 0.1493486281
Ag  Ag14  1  0.99040000  0.46147000  0.79457000  1.0 0.1321782716
Ag  Ag15  1  0.52450000  0.00674000  0.70624000  1.0 0.1493486281
Ag  Ag16  1  0.99761000  0.48440000  0.69946000  1.0 0.1389889441
H  H1  1  0.16437000  0.67718000  0.58635000  1.0 0.2872382555
H  H2  1  0.09666000  0.69646000  0.72446000  1.0 0.1098284704
H  H3  1  0.38558000  0.69594000  0.71815000  1.0 0.1009782295
H  H4  1  0.08505000  0.68299000  0.65228000  1.0 0.1321782716
H  H5  1  0.14273000  0.74115000  0.44788000  1.0 0.1493486281
H  H6  1  0.36885000  0.76115000  0.50186000  1.0 0.2800019052
H  H7  1  0.12650000  0.76262000  0.37730000  1.0 0.1098284704
H  H8  1  0.43462000  0.79291000  0.43620000  1.0 0.1389889441
H  H9  1  0.38235000  0.69608000  0.64528000  1.0 0.1389889441
H  H10  1  0.41025000  0.80523000  0.36373000  1.0 0.1098284704
H  H11  1  0.61871000  0.74531000  0.35283000  1.0 0.1389889441
H  H12  1  0.61557000  0.75903000  0.27885000  1.0 0.1098284704
H  H13  1  0.90585000  0.74853000  0.27311000  1.0 0.1098284704
H  H14  1  0.84173000  0.72788000  0.41027000  1.0 0.2872382555
H  H15  1  0.56128000  0.76735000  0.56767000  1.0 0.1389889441
H  H16  1  0.62736000  0.76372000  0.49991000  1.0 0.2872382555
H  H17  1  0.91930000  0.75554000  0.34532000  1.0 0.1389889441
H  H18  1  0.85255000  0.71654000  0.54972000  1.0 0.1493486281
H  H19  1  0.58671000  0.76041000  0.63812000  1.0 0.1175203252
H  H20  1  0.86765000  0.70798000  0.62197000  1.0 0.1098284704
H  H21  1  0.83563000  0.32282000  0.08635000  1.0 0.2872382555
H  H22  1  0.90334000  0.30354000  0.22446000  1.0 0.1098284704
H  H23  1  0.61442000  0.30406000  0.21815000  1.0 0.1009782295
H  H24  1  0.91495000  0.31701000  0.15228000  1.0 0.1321782716
H  H25  1  0.85727000  0.25885000  0.94788000  1.0 0.1493486281
H  H26  1  0.63115000  0.23885000  0.00186000  1.0 0.2800019052
H  H27  1  0.87350000  0.23738000  0.87730000  1.0 0.1098284704
H  H28  1  0.56538000  0.20709000  0.93620000  1.0 0.1389889441
H  H29  1  0.61765000  0.30392000  0.14528000  1.0 0.1389889441
H  H30  1  0.58975000  0.19477000  0.86373000  1.0 0.1098284704
H  H31  1  0.38129000  0.25469000  0.85283000  1.0 0.1389889441
H  H32  1  0.38443000  0.24097000  0.77885000  1.0 0.1098284704
H  H33  1  0.09415000  0.25147000  0.77311000  1.0 0.1098284704
H  H34  1  0.15827000  0.27212000  0.91027000  1.0 0.2872382555
H  H35  1  0.43872000  0.23265000  0.06767000  1.0 0.1389889441
H  H36  1  0.37264000  0.23628000  0.99991000  1.0 0.2872382555
H  H37  1  0.08070000  0.24446000  0.84532000  1.0 0.1389889441
H  H38  1  0.14745000  0.28346000  0.04972000  1.0 0.1493486281
H  H39  1  0.41329000  0.23959000  0.13812000  1.0 0.1175203252
H  H40  1  0.13235000  0.29202000  0.12197000  1.0 0.1098284704
H  H41  1  0.83563000  0.17718000  0.58635000  1.0 0.2872382555
H  H42  1  0.90334000  0.19646000  0.72446000  1.0 0.1098284704
H  H43  1  0.61442000  0.19594000  0.71815000  1.0 0.1009782295
H  H44  1  0.91495000  0.18299000  0.65228000  1.0 0.1321782716
H  H45  1  0.85727000  0.24115000  0.44788000  1.0 0.1493486281
H  H46  1  0.63115000  0.26115000  0.50186000  1.0 0.2800019052
H  H47  1  0.87350000  0.26262000  0.37730000  1.0 0.1098284704
H  H48  1  0.56538000  0.29291000  0.43620000  1.0 0.1389889441
H  H49  1  0.61765000  0.19608000  0.64528000  1.0 0.1389889441
H  H50  1  0.58975000  0.30523000  0.36373000  1.0 0.1098284704
H  H51  1  0.38129000  0.24531000  0.35283000  1.0 0.1389889441
H  H52  1  0.38443000  0.25903000  0.27885000  1.0 0.1098284704
H  H53  1  0.09415000  0.24853000  0.27311000  1.0 0.1098284704
H  H54  1  0.15827000  0.22788000  0.41027000  1.0 0.2872382555
H  H55  1  0.43872000  0.26735000  0.56767000  1.0 0.1389889441
H  H56  1  0.37264000  0.26372000  0.49991000  1.0 0.2872382555
H  H57  1  0.08070000  0.25554000  0.34532000  1.0 0.1389889441
H  H58  1  0.14745000  0.21654000  0.54972000  1.0 0.1493486281
H  H59  1  0.41329000  0.26041000  0.63812000  1.0 0.1175203252
H  H60  1  0.13235000  0.20798000  0.62197000  1.0 0.1098284704
H  H61  1  0.16437000  0.82282000  0.08635000  1.0 0.2872382555
H  H62  1  0.09666000  0.80354000  0.22446000  1.0 0.1098284704
H  H63  1  0.38558000  0.80406000  0.21815000  1.0 0.1009782295
H  H64  1  0.08505000  0.81701000  0.15228000  1.0 0.1321782716
H  H65  1  0.14273000  0.75885000  0.94788000  1.0 0.1493486281
H  H66  1  0.36885000  0.73885000  0.00186000  1.0 0.2800019052
H  H67  1  0.12650000  0.73738000  0.87730000  1.0 0.1098284704
H  H68  1  0.43462000  0.70709000  0.93620000  1.0 0.1389889441
H  H69  1  0.38235000  0.80392000  0.14528000  1.0 0.1389889441
H  H70  1  0.41025000  0.69477000  0.86373000  1.0 0.1098284704
H  H71  1  0.61871000  0.75469000  0.85283000  1.0 0.1389889441
H  H72  1  0.61557000  0.74097000  0.77885000  1.0 0.1098284704
H  H73  1  0.90585000  0.75147000  0.77311000  1.0 0.1098284704
H  H74  1  0.84173000  0.77212000  0.91027000  1.0 0.2872382555
H  H75  1  0.56128000  0.73265000  0.06767000  1.0 0.1389889441
H  H76  1  0.62736000  0.73628000  0.99991000  1.0 0.2872382555
H  H77  1  0.91930000  0.74446000  0.84532000  1.0 0.1389889441
H  H78  1  0.85255000  0.78346000  0.04972000  1.0 0.1493486281
H  H79  1  0.58671000  0.73959000  0.13812000  1.0 0.1175203252
H  H80  1  0.86765000  0.79202000  0.12197000  1.0 0.1098284704
C  C1  1  0.15520000  0.69350000  0.70840000  1.0 0.1009782295
C  C2  1  0.32370000  0.69510000  0.70450000  1.0 0.0889039779
C  C3  1  0.14760000  0.68860000  0.66510000  1.0 -0.2507559132
C  C4  1  0.19870000  0.75320000  0.43130000  1.0 -0.2194859382
C  C5  1  0.19020000  0.76630000  0.38920000  1.0 0.0841308612
C  C6  1  0.23310000  0.69210000  0.64010000  1.0 0.2693639215
C  C7  1  0.29210000  0.71350000  0.56660000  1.0 0.372604132
C  C8  1  0.24730000  0.71130000  0.52120000  1.0 0.372604132
C  C9  1  0.07490000  0.92660000  0.29770000  1.0 0.0083777261
C  C10  1  0.37190000  0.78290000  0.42430000  1.0 -0.2398089639
C  C11  1  0.42570000  0.66360000  0.29290000  1.0 -0.011551612
C  C12  1  0.32280000  0.69470000  0.66070000  1.0 -0.2299365174
C  C13  1  0.35580000  0.79240000  0.38110000  1.0 0.1098284704
C  C14  1  0.10000000  0.64300000  0.29450000  1.0 -0.0211221078
C  C15  1  0.29220000  0.75810000  0.44930000  1.0 0.2641565431
C  C16  1  0.39380000  0.95420000  0.29830000  1.0 0.0036683659
C  C17  1  0.67780000  0.74850000  0.33710000  1.0 -0.2398089639
C  C18  1  0.67690000  0.75560000  0.29280000  1.0 0.1098284704
C  C19  1  0.60770000  0.60010000  0.20350000  1.0 -0.0211221078
C  C20  1  0.84810000  0.75220000  0.28960000  1.0 0.0889039779
C  C21  1  0.75320000  0.73770000  0.47540000  1.0 0.3770859469
C  C22  1  0.62490000  0.75560000  0.57830000  1.0 -0.2398089639
C  C23  1  0.77200000  0.74640000  0.35700000  1.0 0.2800019052
C  C24  1  0.70600000  0.74190000  0.55040000  1.0 0.2693639215
C  C25  1  0.70990000  0.74850000  0.43030000  1.0 0.372604132
C  C26  1  0.85660000  0.75200000  0.33250000  1.0 -0.2507559132
C  C27  1  0.79710000  0.72520000  0.56720000  1.0 -0.2194859382
C  C28  1  0.90450000  0.91350000  0.19880000  1.0 -0.0211221078
C  C29  1  0.57280000  0.89460000  0.20660000  1.0 -0.0211221078
C  C30  1  0.64100000  0.75140000  0.62010000  1.0 0.0889039779
C  C31  1  0.91410000  0.62160000  0.19670000  1.0 -0.0211221078
C  C32  1  0.80520000  0.72130000  0.61060000  1.0 0.0889039779
C  C33  1  0.84480000  0.30650000  0.20840000  1.0 0.1009782295
C  C34  1  0.67630000  0.30490000  0.20450000  1.0 0.0889039779
C  C35  1  0.85240000  0.31140000  0.16510000  1.0 -0.2507559132
C  C36  1  0.80130000  0.24680000  0.93130000  1.0 -0.2194859382
C  C37  1  0.80980000  0.23370000  0.88920000  1.0 0.0841308612
C  C38  1  0.76690000  0.30790000  0.14010000  1.0 0.2693639215
C  C39  1  0.70790000  0.28650000  0.06660000  1.0 0.372604132
C  C40  1  0.75270000  0.28870000  0.02120000  1.0 0.372604132
C  C41  1  0.92510000  0.07340000  0.79770000  1.0 0.0083777261
C  C42  1  0.62810000  0.21710000  0.92430000  1.0 -0.2398089639
C  C43  1  0.57430000  0.33640000  0.79290000  1.0 -0.011551612
C  C44  1  0.67720000  0.30530000  0.16070000  1.0 -0.2299365174
C  C45  1  0.64420000  0.20760000  0.88110000  1.0 0.1098284704
C  C46  1  0.90000000  0.35700000  0.79450000  1.0 -0.0211221078
C  C47  1  0.70780000  0.24190000  0.94930000  1.0 0.2693639215
C  C48  1  0.60620000  0.04580000  0.79830000  1.0 0.0036683659
C  C49  1  0.32220000  0.25150000  0.83710000  1.0 -0.2398089639
C  C50  1  0.32310000  0.24440000  0.79280000  1.0 0.1098284704
C  C51  1  0.39230000  0.39990000  0.70350000  1.0 -0.0211221078
C  C52  1  0.15190000  0.24780000  0.78960000  1.0 0.0889039779
C  C53  1  0.24680000  0.26230000  0.97540000  1.0 0.3770859469
C  C54  1  0.37510000  0.24440000  0.07830000  1.0 -0.2398089639
C  C55  1  0.22800000  0.25360000  0.85700000  1.0 0.2800019052
C  C56  1  0.29400000  0.25810000  0.05040000  1.0 0.2641565431
C  C57  1  0.29010000  0.25150000  0.93030000  1.0 0.372604132
C  C58  1  0.14340000  0.24800000  0.83250000  1.0 -0.2507559132
C  C59  1  0.20290000  0.27480000  0.06720000  1.0 -0.2194859382
C  C60  1  0.09550000  0.08650000  0.69880000  1.0 -0.0211221078
C  C61  1  0.42720000  0.10540000  0.70660000  1.0 -0.0211221078
C  C62  1  0.35900000  0.24860000  0.12010000  1.0 0.0889039779
C  C63  1  0.08590000  0.37840000  0.69670000  1.0 -0.0211221078
C  C64  1  0.19480000  0.27870000  0.11060000  1.0 0.0889039779
C  C65  1  0.84480000  0.19350000  0.70840000  1.0 0.1009782295
C  C66  1  0.67630000  0.19510000  0.70450000  1.0 0.0889039779
C  C67  1  0.85240000  0.18860000  0.66510000  1.0 -0.2507559132
C  C68  1  0.80130000  0.25320000  0.43130000  1.0 -0.2194859382
C  C69  1  0.80980000  0.26630000  0.38920000  1.0 0.0841308612
C  C70  1  0.76690000  0.19210000  0.64010000  1.0 0.2693639215
C  C71  1  0.70790000  0.21350000  0.56660000  1.0 0.372604132
C  C72  1  0.75270000  0.21130000  0.52120000  1.0 0.372604132
C  C73  1  0.92510000  0.42660000  0.29770000  1.0 0.0083777261
C  C74  1  0.62810000  0.28290000  0.42430000  1.0 -0.2398089639
C  C75  1  0.57430000  0.16360000  0.29290000  1.0 -0.011551612
C  C76  1  0.67720000  0.19470000  0.66070000  1.0 -0.2299365174
C  C77  1  0.64420000  0.29240000  0.38110000  1.0 0.1098284704
C  C78  1  0.90000000  0.14300000  0.29450000  1.0 -0.0211221078
C  C79  1  0.70780000  0.25810000  0.44930000  1.0 0.2641565431
C  C80  1  0.60620000  0.45420000  0.29830000  1.0 0.0036683659
C  C81  1  0.32220000  0.24850000  0.33710000  1.0 -0.2398089639
C  C82  1  0.32310000  0.25560000  0.29280000  1.0 0.1098284704
C  C83  1  0.39230000  0.10010000  0.20350000  1.0 -0.0211221078
C  C84  1  0.15190000  0.25220000  0.28960000  1.0 0.0889039779
C  C85  1  0.24680000  0.23770000  0.47540000  1.0 0.3770859469
C  C86  1  0.37510000  0.25560000  0.57830000  1.0 -0.2398089639
C  C87  1  0.22800000  0.24640000  0.35700000  1.0 0.2800019052
C  C88  1  0.29400000  0.24190000  0.55040000  1.0 0.2693639215
C  C89  1  0.29010000  0.24850000  0.43030000  1.0 0.372604132
C  C90  1  0.14340000  0.25200000  0.33250000  1.0 -0.2507559132
C  C91  1  0.20290000  0.22520000  0.56720000  1.0 -0.2194859382
C  C92  1  0.09550000  0.41350000  0.19880000  1.0 -0.0211221078
C  C93  1  0.42720000  0.39460000  0.20660000  1.0 -0.0211221078
C  C94  1  0.35900000  0.25140000  0.62010000  1.0 0.0889039779
C  C95  1  0.08590000  0.12160000  0.19670000  1.0 -0.0211221078
C  C96  1  0.19480000  0.22130000  0.61060000  1.0 0.0889039779
C  C97  1  0.15520000  0.80650000  0.20840000  1.0 0.1009782295
C  C98  1  0.32370000  0.80490000  0.20450000  1.0 0.0889039779
C  C99  1  0.14760000  0.81140000  0.16510000  1.0 -0.2507559132
C  C100  1  0.19870000  0.74680000  0.93130000  1.0 -0.2194859382
C  C101  1  0.19020000  0.73370000  0.88920000  1.0 0.0841308612
C  C102  1  0.23310000  0.80790000  0.14010000  1.0 0.2693639215
C  C103  1  0.29210000  0.78650000  0.06660000  1.0 0.372604132
C  C104  1  0.24730000  0.78870000  0.02120000  1.0 0.372604132
C  C105  1  0.07490000  0.57340000  0.79770000  1.0 0.0083777261
C  C106  1  0.37190000  0.71710000  0.92430000  1.0 -0.2398089639
C  C107  1  0.42570000  0.83640000  0.79290000  1.0 -0.011551612
C  C108  1  0.32280000  0.80530000  0.16070000  1.0 -0.2299365174
C  C109  1  0.35580000  0.70760000  0.88110000  1.0 0.1098284704
C  C110  1  0.10000000  0.85700000  0.79450000  1.0 -0.0211221078
C  C111  1  0.29220000  0.74190000  0.94930000  1.0 0.2693639215
C  C112  1  0.39380000  0.54580000  0.79830000  1.0 0.0036683659
C  C113  1  0.67780000  0.75150000  0.83710000  1.0 -0.2398089639
C  C114  1  0.67690000  0.74440000  0.79280000  1.0 0.1098284704
C  C115  1  0.60770000  0.89990000  0.70350000  1.0 -0.0211221078
C  C116  1  0.84810000  0.74780000  0.78960000  1.0 0.0889039779
C  C117  1  0.75320000  0.76230000  0.97540000  1.0 0.3770859469
C  C118  1  0.62490000  0.74440000  0.07830000  1.0 -0.2398089639
C  C119  1  0.77200000  0.75360000  0.85700000  1.0 0.2800019052
C  C120  1  0.70600000  0.75810000  0.05040000  1.0 0.2641565431
C  C121  1  0.70990000  0.75150000  0.93030000  1.0 0.372604132
C  C122  1  0.85660000  0.74800000  0.83250000  1.0 -0.2507559132
C  C123  1  0.79710000  0.77480000  0.06720000  1.0 -0.2194859382
C  C124  1  0.90450000  0.58650000  0.69880000  1.0 -0.0211221078
C  C125  1  0.57280000  0.60540000  0.70660000  1.0 -0.0211221078
C  C126  1  0.64100000  0.74860000  0.12010000  1.0 0.0889039779
C  C127  1  0.91410000  0.87840000  0.69670000  1.0 -0.0211221078
C  C128  1  0.80520000  0.77870000  0.11060000  1.0 0.0889039779
N  N1  1  0.24200000  0.69430000  0.72870000  1.0 -0.2194859382
N  N2  1  0.34480000  0.89950000  0.29740000  1.0 -0.3403265143
N  N3  1  0.36650000  0.71430000  0.29110000  1.0 -0.3403265143
N  N4  1  0.15260000  0.69950000  0.29600000  1.0 -0.3403265143
N  N5  1  0.22200000  0.69220000  0.59610000  1.0 -0.3403265143
N  N6  1  0.13520000  0.88020000  0.30000000  1.0 -0.3403265143
N  N7  1  0.31110000  0.74560000  0.49250000  1.0 -0.3505238604
N  N8  1  0.26560000  0.78410000  0.36300000  1.0 -0.2194859382
N  N9  1  0.65410000  0.66250000  0.20510000  1.0 -0.3281797018
N  N10  1  0.75920000  0.75760000  0.26990000  1.0 -0.2067045864
N  N11  1  0.78260000  0.73930000  0.40090000  1.0 -0.3403265143
N  N12  1  0.86150000  0.67730000  0.19800000  1.0 -0.3281797018
N  N13  1  0.84880000  0.85910000  0.20110000  1.0 -0.3403265143
N  N14  1  0.63360000  0.84480000  0.20760000  1.0 -0.3281797018
N  N15  1  0.68730000  0.74970000  0.50720000  1.0 -0.3403265143
N  N16  1  0.73050000  0.73510000  0.63830000  1.0 -0.2194859382
N  N17  1  0.75800000  0.30570000  0.22870000  1.0 -0.2194859382
N  N18  1  0.65520000  0.10050000  0.79740000  1.0 -0.3403265143
N  N19  1  0.63350000  0.28570000  0.79110000  1.0 -0.3403265143
N  N20  1  0.84740000  0.30050000  0.79600000  1.0 -0.3403265143
N  N21  1  0.77800000  0.30780000  0.09610000  1.0 -0.3403265143
N  N22  1  0.86480000  0.11980000  0.80000000  1.0 -0.3403265143
N  N23  1  0.68890000  0.25440000  0.99250000  1.0 -0.3505238604
N  N24  1  0.73440000  0.21590000  0.86300000  1.0 -0.2194859382
N  N25  1  0.34590000  0.33750000  0.70510000  1.0 -0.3281797018
N  N26  1  0.24080000  0.24240000  0.76990000  1.0 -0.2067045864
N  N27  1  0.21740000  0.26070000  0.90090000  1.0 -0.3403265143
N  N28  1  0.13850000  0.32270000  0.69800000  1.0 -0.3281797018
N  N29  1  0.15120000  0.14090000  0.70110000  1.0 -0.3403265143
N  N30  1  0.36640000  0.15520000  0.70760000  1.0 -0.3281797018
N  N31  1  0.31270000  0.25030000  0.00720000  1.0 -0.3403265143
N  N32  1  0.26950000  0.26490000  0.13830000  1.0 -0.2194859382
N  N33  1  0.75800000  0.19430000  0.72870000  1.0 -0.2194859382
N  N34  1  0.65520000  0.39950000  0.29740000  1.0 -0.3403265143
N  N35  1  0.63350000  0.21430000  0.29110000  1.0 -0.3403265143
N  N36  1  0.84740000  0.19950000  0.29600000  1.0 -0.3403265143
N  N37  1  0.77800000  0.19220000  0.59610000  1.0 -0.3403265143
N  N38  1  0.86480000  0.38020000  0.30000000  1.0 -0.3403265143
N  N39  1  0.68890000  0.24560000  0.49250000  1.0 -0.3505238604
N  N40  1  0.73440000  0.28410000  0.36300000  1.0 -0.2194859382
N  N41  1  0.34590000  0.16250000  0.20510000  1.0 -0.3281797018
N  N42  1  0.24080000  0.25760000  0.26990000  1.0 -0.2067045864
N  N43  1  0.21740000  0.23930000  0.40090000  1.0 -0.3403265143
N  N44  1  0.13850000  0.17730000  0.19800000  1.0 -0.3281797018
N  N45  1  0.15120000  0.35910000  0.20110000  1.0 -0.3403265143
N  N46  1  0.36640000  0.34480000  0.20760000  1.0 -0.3281797018
N  N47  1  0.31270000  0.24970000  0.50720000  1.0 -0.3505238604
N  N48  1  0.26950000  0.23510000  0.63830000  1.0 -0.2194859382
N  N49  1  0.24200000  0.80570000  0.22870000  1.0 -0.2194859382
N  N50  1  0.34480000  0.60050000  0.79740000  1.0 -0.3403265143
N  N51  1  0.36650000  0.78570000  0.79110000  1.0 -0.3403265143
N  N52  1  0.15260000  0.80050000  0.79600000  1.0 -0.3403265143
N  N53  1  0.22200000  0.80780000  0.09610000  1.0 -0.3403265143
N  N54  1  0.13520000  0.61980000  0.80000000  1.0 -0.3403265143
N  N55  1  0.31110000  0.75440000  0.99250000  1.0 -0.3505238604
N  N56  1  0.26560000  0.71590000  0.86300000  1.0 -0.2194859382
N  N57  1  0.65410000  0.83750000  0.70510000  1.0 -0.3281797018
N  N58  1  0.75920000  0.74240000  0.76990000  1.0 -0.2067045864
N  N59  1  0.78260000  0.76070000  0.90090000  1.0 -0.3403265143
N  N60  1  0.86150000  0.82270000  0.69800000  1.0 -0.3281797018
N  N61  1  0.84880000  0.64090000  0.70110000  1.0 -0.3403265143
N  N62  1  0.63360000  0.65520000  0.70760000  1.0 -0.3281797018
N  N63  1  0.68730000  0.75030000  0.00720000  1.0 -0.3403265143
N  N64  1  0.73050000  0.76490000  0.13830000  1.0 -0.2194859382
O  O1  1  0.37500000  0.73500000  0.57320000  1.0 -0.4356569421
O  O2  1  0.16880000  0.68150000  0.51360000  1.0 -0.4101991426
O  O3  1  0.84060000  0.71810000  0.48010000  1.0 -0.4557960552
O  O4  1  0.62290000  0.75920000  0.42500000  1.0 -0.4506914687
O  O5  1  0.62500000  0.26500000  0.07320000  1.0 -0.4356569421
O  O6  1  0.83120000  0.31850000  0.01360000  1.0 -0.4101991426
O  O7  1  0.15940000  0.28190000  0.98010000  1.0 -0.4557960552
O  O8  1  0.37710000  0.24080000  0.92500000  1.0 -0.4506914687
O  O9  1  0.62500000  0.23500000  0.57320000  1.0 -0.4356569421
O  O10  1  0.83120000  0.18150000  0.51360000  1.0 -0.4101991426
O  O11  1  0.15940000  0.21810000  0.48010000  1.0 -0.4557960552
O  O12  1  0.37710000  0.25920000  0.42500000  1.0 -0.4506914687
O  O13  1  0.37500000  0.76500000  0.07320000  1.0 -0.4356569421
O  O14  1  0.16880000  0.81850000  0.01360000  1.0 -0.4101991426
O  O15  1  0.84060000  0.78190000  0.98010000  1.0 -0.4557960552
O  O16  1  0.62290000  0.74080000  0.92500000  1.0 -0.4506914687
