# DDEC6 charges by PACMAN v1.1 (https://github.com/mtap-research/PACMAN-charge/)
data_XAWZEE02_ASR_pacman
_symmetry_space_group_name_H-M   'P 1'
_cell_length_a   10.58890000
_cell_length_b   10.66100000
_cell_length_c   16.04300000
_cell_angle_alpha   98.71200000
_cell_angle_beta   93.32700000
_cell_angle_gamma   101.21200000
_symmetry_Int_Tables_number   1
_chemical_formula_structural   FeAg2H10C16(N4O)2
_chemical_formula_sum   'Fe2 Ag4 H20 C32 N16 O4'
_cell_volume   1748.84158822
_cell_formula_units_Z   2
loop_
 _symmetry_equiv_pos_site_id
 _symmetry_equiv_pos_as_xyz
  1  'x, y, z'
loop_
 _atom_site_type_symbol
 _atom_site_label
 _atom_site_symmetry_multiplicity
 _atom_site_fract_x
 _atom_site_fract_y
 _atom_site_fract_z
 _atom_site_occupancy
 _atom_site_charge
Fe  Fe1  1  0.29407000  0.26771000  0.10297000  1.0 0.7606760763
Fe  Fe2  1  0.70593000  0.73229000  0.89703000  1.0 0.7606760763
Ag  Ag1  1  0.31600000  0.76960000  0.09333000  1.0 0.1556047849
Ag  Ag2  1  0.79120000  0.25967000  0.09897000  1.0 0.1394340783
Ag  Ag3  1  0.68400000  0.23040000  0.90667000  1.0 0.1556047849
Ag  Ag4  1  0.20880000  0.74033000  0.90103000  1.0 0.1394340783
H  H1  1  0.22238000  0.12667000  0.67453000  1.0 0.2923134916
H  H2  1  0.32702000  0.41299000  0.53510000  1.0 0.2813384138
H  H3  1  0.16832000  0.07370000  0.93717000  1.0 0.1165107168
H  H4  1  0.16645000  0.04577000  0.79582000  1.0 0.1394340783
H  H5  1  0.39501000  0.39518000  0.81574000  1.0 0.1512004487
H  H6  1  0.40623000  0.40627000  0.95743000  1.0 0.1126477523
H  H7  1  0.20508000  0.13004000  0.38860000  1.0 0.1512004487
H  H8  1  0.19993000  0.11816000  0.24615000  1.0 0.1165107168
H  H9  1  0.38190000  0.47759000  0.26942000  1.0 0.1126477523
H  H10  1  0.37672000  0.50050000  0.41547000  1.0 0.1330355458
H  H11  1  0.77762000  0.87333000  0.32547000  1.0 0.2923134916
H  H12  1  0.67298000  0.58701000  0.46490000  1.0 0.2813384138
H  H13  1  0.83168000  0.92630000  0.06283000  1.0 0.1165107168
H  H14  1  0.83355000  0.95423000  0.20418000  1.0 0.1394340783
H  H15  1  0.60499000  0.60482000  0.18426000  1.0 0.1512004487
H  H16  1  0.59377000  0.59373000  0.04257000  1.0 0.1126477523
H  H17  1  0.79492000  0.86996000  0.61140000  1.0 0.1512004487
H  H18  1  0.80007000  0.88184000  0.75385000  1.0 0.1165107168
H  H19  1  0.61810000  0.52241000  0.73058000  1.0 0.1126477523
H  H20  1  0.62328000  0.49950000  0.58453000  1.0 0.1330355458
C  C1  1  0.21730000  0.13790000  0.91240000  1.0 0.076613722
C  C2  1  0.21180000  0.12300000  0.82810000  1.0 -0.2389359422
C  C3  1  0.27320000  0.22200000  0.78790000  1.0 0.2612963222
C  C4  1  0.34840000  0.32790000  0.83910000  1.0 -0.2264878214
C  C5  1  0.35420000  0.33340000  0.92430000  1.0 0.0981325634
C  C6  1  0.29900000  0.29710000  0.65080000  1.0 0.3631337635
C  C7  1  0.27270000  0.24420000  0.55550000  1.0 0.3769846164
C  C8  1  0.29430000  0.31820000  0.41860000  1.0 0.2458277248
C  C9  1  0.24060000  0.20280000  0.36580000  1.0 -0.2264878214
C  C10  1  0.24000000  0.19610000  0.28000000  1.0 0.0981325634
C  C11  1  0.34430000  0.40650000  0.29310000  1.0 0.1126477523
C  C12  1  0.34330000  0.42030000  0.38200000  1.0 -0.2591615267
C  C13  1  0.30920000  0.57770000  0.10150000  1.0 -0.0025145954
C  C14  1  0.60480000  0.29110000  0.10920000  1.0 0.0008232418
C  C15  1  0.30620000  0.96300000  0.09540000  1.0 -0.0079775772
C  C16  1  0.97760000  0.23540000  0.09490000  1.0 -0.0248009398
C  C17  1  0.78270000  0.86210000  0.08760000  1.0 0.076613722
C  C18  1  0.78820000  0.87700000  0.17190000  1.0 -0.2389359422
C  C19  1  0.72680000  0.77800000  0.21210000  1.0 0.2612963222
C  C20  1  0.65160000  0.67210000  0.16090000  1.0 -0.2264878214
C  C21  1  0.64580000  0.66666667  0.07570000  1.0 0.0981325634
C  C22  1  0.70100000  0.70290000  0.34920000  1.0 0.3631337635
C  C23  1  0.72730000  0.75580000  0.44450000  1.0 0.3747899436
C  C24  1  0.70570000  0.68180000  0.58140000  1.0 0.2445927166
C  C25  1  0.75940000  0.79720000  0.63420000  1.0 -0.2264878214
C  C26  1  0.76000000  0.80390000  0.72000000  1.0 0.0981325634
C  C27  1  0.65570000  0.59350000  0.70690000  1.0 0.1126477523
C  C28  1  0.65670000  0.57970000  0.61800000  1.0 -0.2591615267
C  C29  1  0.69080000  0.42230000  0.89850000  1.0 -0.0079775772
C  C30  1  0.39520000  0.70890000  0.89080000  1.0 -0.0025145954
C  C31  1  0.69380000  0.03700000  0.90460000  1.0 -0.0079775772
C  C32  1  0.02240000  0.76460000  0.90510000  1.0 -0.0259964879
N  N1  1  0.29200000  0.24380000  0.96400000  1.0 -0.2183487959
N  N2  1  0.25900000  0.20290000  0.70040000  1.0 -0.3168284692
N  N3  1  0.30130000  0.33490000  0.50850000  1.0 -0.3491217293
N  N4  1  0.29260000  0.29340000  0.24120000  1.0 -0.2135521643
N  N5  1  0.30370000  0.47330000  0.10480000  1.0 -0.337561617
N  N6  1  0.50300000  0.30370000  0.11240000  1.0 -0.337561617
N  N7  1  0.29710000  0.06640000  0.09740000  1.0 -0.3315467559
N  N8  1  0.08220000  0.23000000  0.09440000  1.0 -0.3315467559
N  N9  1  0.70800000  0.75620000  0.03600000  1.0 -0.2183487959
N  N10  1  0.74100000  0.79710000  0.29960000  1.0 -0.3168284692
N  N11  1  0.69870000  0.66510000  0.49150000  1.0 -0.337561617
N  N12  1  0.70740000  0.70660000  0.75880000  1.0 -0.2135521643
N  N13  1  0.69630000  0.52670000  0.89520000  1.0 -0.337561617
N  N14  1  0.49700000  0.69630000  0.88760000  1.0 -0.337561617
N  N15  1  0.70290000  0.93360000  0.90260000  1.0 -0.3315467559
N  N16  1  0.91780000  0.77000000  0.90560000  1.0 -0.3315467559
O  O1  1  0.35210000  0.40590000  0.67660000  1.0 -0.4087624647
O  O2  1  0.22950000  0.12740000  0.53100000  1.0 -0.4657379188
O  O3  1  0.64790000  0.59410000  0.32340000  1.0 -0.4087624647
O  O4  1  0.77050000  0.87260000  0.46900000  1.0 -0.4622961081
