# DDEC6 charges by PACMAN v1.1 (https://github.com/mtap-research/PACMAN-charge/)
data_XAXBAC_FSR_pacman
_symmetry_space_group_name_H-M   'P 1'
_cell_length_a   9.90020000
_cell_length_b   10.61600000
_cell_length_c   12.75980000
_cell_angle_alpha   79.09400000
_cell_angle_beta   72.70900000
_cell_angle_gamma   85.34500000
_symmetry_Int_Tables_number   1
_chemical_formula_structural   ErH6C13S3Br3O8
_chemical_formula_sum   'Er2 H12 C26 S6 Br6 O16'
_cell_volume   1256.88503493
_cell_formula_units_Z   2
loop_
 _symmetry_equiv_pos_site_id
 _symmetry_equiv_pos_as_xyz
  1  'x, y, z'
loop_
 _atom_site_type_symbol
 _atom_site_label
 _atom_site_symmetry_multiplicity
 _atom_site_fract_x
 _atom_site_fract_y
 _atom_site_fract_z
 _atom_site_occupancy
 _atom_site_charge
Er  Er1  1  0.72411000  0.18466000  0.66812000  1.0 1.9793648856
Er  Er2  1  0.27589000  0.81534000  0.33188000  1.0 1.9793648856
H  H1  1  0.86520000  0.71840000  0.69880000  1.0 0.144080265
H  H2  1  0.82730000  0.78960000  0.80420000  1.0 0.1688386231
H  H3  1  0.74090000  0.82560000  0.71420000  1.0 0.1765190548
H  H4  1  0.14320000  0.79030000  0.68370000  1.0 0.1765190548
H  H5  1  0.16810000  0.93610000  0.68800000  1.0 0.1688386231
H  H6  1  0.05880000  0.85180000  0.79080000  1.0 0.1688386231
H  H7  1  0.13480000  0.28160000  0.30120000  1.0 0.144080265
H  H8  1  0.17270000  0.21040000  0.19580000  1.0 0.1688386231
H  H9  1  0.25910000  0.17440000  0.28580000  1.0 0.1765190548
H  H10  1  0.85680000  0.20970000  0.31630000  1.0 0.1688386231
H  H11  1  0.83190000  0.06390000  0.31200000  1.0 0.1688386231
H  H12  1  0.94120000  0.14820000  0.20920000  1.0 0.1688386231
C  C1  1  0.61420000  0.90450000  0.48020000  1.0 -0.1596603556
C  C2  1  0.62960000  0.00920000  0.52650000  1.0 0.2696641335
C  C3  1  0.48990000  0.89070000  0.45230000  1.0 0.2846143382
C  C4  1  0.96620000  0.49370000  0.39860000  1.0 -0.1858825548
C  C5  1  0.91220000  0.40230000  0.49130000  1.0 0.2566186326
C  C6  1  0.05250000  0.59150000  0.39970000  1.0 0.2696641335
C  C7  1  0.42790000  0.92370000  0.95130000  1.0 -0.1663537486
C  C8  1  0.52730000  0.00900000  0.88150000  1.0 0.2696641335
C  C9  1  0.39640000  0.90900000  0.06810000  1.0 0.2875517147
C  C10  1  0.60650000  0.49510000  0.86830000  1.0 -0.0716853974
C  C11  1  0.47550000  0.60080000  0.70380000  1.0 -0.3867393298
C  C12  1  0.83390000  0.79990000  0.72490000  1.0 -0.5483270748
C  C13  1  0.09800000  0.86890000  0.70950000  1.0 -0.5368906719
C  C14  1  0.38580000  0.09550000  0.51980000  1.0 -0.1596603556
C  C15  1  0.37040000  0.99080000  0.47350000  1.0 0.2696641335
C  C16  1  0.51010000  0.10930000  0.54770000  1.0 0.2875517147
C  C17  1  0.03380000  0.50630000  0.60140000  1.0 -0.1858825548
C  C18  1  0.08780000  0.59770000  0.50870000  1.0 0.2566186326
C  C19  1  0.94750000  0.40850000  0.60030000  1.0 0.2696641335
C  C20  1  0.57210000  0.07630000  0.04870000  1.0 -0.1663537486
C  C21  1  0.47270000  0.99100000  0.11850000  1.0 0.2696641335
C  C22  1  0.60360000  0.09100000  0.93190000  1.0 0.2875517147
C  C23  1  0.39350000  0.50490000  0.13170000  1.0 -0.0546365021
C  C24  1  0.52450000  0.39920000  0.29620000  1.0 -0.3951652212
C  C25  1  0.16610000  0.20010000  0.27510000  1.0 -0.5483270748
C  C26  1  0.90200000  0.13110000  0.29050000  1.0 -0.5368906719
S  S1  1  0.62600000  0.50190000  0.71750000  1.0 0.3010990159
S  S2  1  0.95860000  0.92078000  0.64731000  1.0 0.6773317294
S  S3  1  0.61120000  0.50300000  0.66190000  1.0 0.2696641335
S  S4  1  0.37400000  0.49810000  0.28250000  1.0 0.3010990159
S  S5  1  0.04140000  0.07922000  0.35269000  1.0 0.6773317294
S  S6  1  0.38880000  0.49700000  0.33810000  1.0 0.2696641335
Br  Br1  1  0.76315000  0.78151000  0.45103000  1.0 0.0119202645
Br  Br2  1  0.92370000  0.48776000  0.26416000  1.0 0.0756608086
Br  Br3  1  0.33006000  0.82469000  0.89101000  1.0 0.0739612417
Br  Br4  1  0.23685000  0.21849000  0.54897000  1.0 0.0119202645
Br  Br5  1  0.07630000  0.51224000  0.73584000  1.0 0.0756608086
Br  Br6  1  0.66994000  0.17531000  0.10899000  1.0 0.0739612417
O  O1  1  0.59160000  0.36600000  0.70930000  1.0 -0.4180192215
O  O2  1  0.89950000  0.04180000  0.69470000  1.0 -0.6503968699
O  O3  1  0.73760000  0.03100000  0.55270000  1.0 -0.5285540683
O  O4  1  0.83570000  0.31050000  0.49710000  1.0 -0.5025380714
O  O5  1  0.56180000  0.02780000  0.77640000  1.0 -0.4897547824
O  O6  1  0.46710000  0.79810000  0.41130000  1.0 -0.4594479067
O  O7  1  0.10690000  0.67720000  0.31970000  1.0 -0.4686554236
O  O8  1  0.31190000  0.83070000  0.13750000  1.0 -0.4594479067
O  O9  1  0.40840000  0.63400000  0.29070000  1.0 -0.4180192215
O  O10  1  0.10050000  0.95820000  0.30530000  1.0 -0.6503968699
O  O11  1  0.26240000  0.96900000  0.44730000  1.0 -0.5285540683
O  O12  1  0.16430000  0.68950000  0.50290000  1.0 -0.5025380714
O  O13  1  0.43820000  0.97220000  0.22360000  1.0 -0.4897547824
O  O14  1  0.53290000  0.20190000  0.58870000  1.0 -0.4594479067
O  O15  1  0.89310000  0.32280000  0.68030000  1.0 -0.4686554236
O  O16  1  0.68810000  0.16930000  0.86250000  1.0 -0.4594479067
