# DDEC6 charges by PACMAN v1.1 (https://github.com/mtap-research/PACMAN-charge/)
data_XAYSEZ_FSR_pacman
_symmetry_space_group_name_H-M   'P 1'
_cell_length_a   11.36600000
_cell_length_b   21.91900000
_cell_length_c   11.45300000
_cell_angle_alpha   90.00000000
_cell_angle_beta   114.74000000
_cell_angle_gamma   90.00000000
_symmetry_Int_Tables_number   1
_chemical_formula_structural   CoH16C26(NO2)2
_chemical_formula_sum   'Co4 H64 C104 N8 O16'
_cell_volume   2591.41463788
_cell_formula_units_Z   4
loop_
 _symmetry_equiv_pos_site_id
 _symmetry_equiv_pos_as_xyz
  1  'x, y, z'
loop_
 _atom_site_type_symbol
 _atom_site_label
 _atom_site_symmetry_multiplicity
 _atom_site_fract_x
 _atom_site_fract_y
 _atom_site_fract_z
 _atom_site_occupancy
 _atom_site_charge
Co  Co1  1  0.82906000  0.43621000  0.61936000  1.0 0.8421116907
Co  Co2  1  0.87579000  0.30800000  0.90094000  1.0 0.8581662017
Co  Co3  1  0.17094000  0.93621000  0.38064000  1.0 0.8421116907
Co  Co4  1  0.12421000  0.80800000  0.09906000  1.0 0.8581662017
H  H1  1  0.93350000  0.42700000  0.13210000  1.0 0.1288282814
H  H2  1  0.96440000  0.48850000  0.30570000  1.0 0.1203733745
H  H3  1  0.93070000  0.63890000  0.08700000  1.0 0.1203733745
H  H4  1  0.90910000  0.57630000  0.91500000  1.0 0.1203733745
H  H5  1  0.05080000  0.63400000  0.83010000  1.0 0.1203733745
H  H6  1  0.02360000  0.58860000  0.63890000  1.0 0.1203733745
H  H7  1  0.94000000  0.75270000  0.46080000  1.0 0.1109315167
H  H8  1  0.97030000  0.79800000  0.65300000  1.0 0.1109315167
H  H9  1  0.72990000  0.35800000  0.05140000  1.0 0.1109315167
H  H10  1  0.52790000  0.36000000  0.05540000  1.0 0.1288282814
H  H11  1  0.39030000  0.26060000  0.72730000  1.0 0.1288282814
H  H12  1  0.59640000  0.26070000  0.73480000  1.0 0.1109315167
H  H13  1  0.03970000  0.23180000  0.80050000  1.0 0.1109315167
H  H14  1  0.23750000  0.22960000  0.79500000  1.0 0.1288282814
H  H15  1  0.32470000  0.38830000  0.99280000  1.0 0.1288282814
H  H16  1  0.12240000  0.38460000  0.99540000  1.0 0.1109315167
H  H17  1  0.73890000  0.31940000  0.37660000  1.0 0.1288282814
H  H18  1  0.65240000  0.25760000  0.19290000  1.0 0.1109315167
H  H19  1  0.65800000  0.11290000  0.41480000  1.0 0.1203733745
H  H20  1  0.73240000  0.17500000  0.59590000  1.0 0.1288282814
H  H21  1  0.34530000  0.11050000  0.64420000  1.0 0.1203733745
H  H22  1  0.45370000  0.15670000  0.84170000  1.0 0.1203733745
H  H23  1  0.44330000  0.00000000  0.02330000  1.0 0.1109315167
H  H24  1  0.33970000  0.95220000  0.82550000  1.0 0.1203733745
H  H25  1  0.57490000  0.35890000  0.52140000  1.0 0.1109315167
H  H26  1  0.37750000  0.35480000  0.53140000  1.0 0.1288282814
H  H27  1  0.46460000  0.51740000  0.71700000  1.0 0.1288282814
H  H28  1  0.66200000  0.51340000  0.70900000  1.0 0.1109315167
H  H29  1  0.10760000  0.49060000  0.77940000  1.0 0.1109315167
H  H30  1  0.30970000  0.49110000  0.78190000  1.0 0.1288282814
H  H31  1  0.17080000  0.38420000  0.46570000  1.0 0.1288282814
H  H32  1  0.97280000  0.38770000  0.47060000  1.0 0.1109315167
H  H33  1  0.06650000  0.92700000  0.86790000  1.0 0.1288282814
H  H34  1  0.03560000  0.98850000  0.69430000  1.0 0.1203733745
H  H35  1  0.06930000  0.13890000  0.91300000  1.0 0.1203733745
H  H36  1  0.09090000  0.07630000  0.08500000  1.0 0.1203733745
H  H37  1  0.94920000  0.13400000  0.16990000  1.0 0.1203733745
H  H38  1  0.97640000  0.08860000  0.36110000  1.0 0.1203733745
H  H39  1  0.06000000  0.25270000  0.53920000  1.0 0.1109315167
H  H40  1  0.02970000  0.29800000  0.34700000  1.0 0.1109315167
H  H41  1  0.27010000  0.85800000  0.94860000  1.0 0.1109315167
H  H42  1  0.47210000  0.86000000  0.94460000  1.0 0.1288282814
H  H43  1  0.60970000  0.76060000  0.27270000  1.0 0.1288282814
H  H44  1  0.40360000  0.76070000  0.26520000  1.0 0.1109315167
H  H45  1  0.96030000  0.73180000  0.19950000  1.0 0.1109315167
H  H46  1  0.76250000  0.72960000  0.20500000  1.0 0.1288282814
H  H47  1  0.67530000  0.88830000  0.00720000  1.0 0.1288282814
H  H48  1  0.87760000  0.88460000  0.00460000  1.0 0.1109315167
H  H49  1  0.26110000  0.81940000  0.62340000  1.0 0.1288282814
H  H50  1  0.34760000  0.75760000  0.80710000  1.0 0.1109315167
H  H51  1  0.34200000  0.61290000  0.58520000  1.0 0.1203733745
H  H52  1  0.26760000  0.67500000  0.40410000  1.0 0.1288282814
H  H53  1  0.65470000  0.61050000  0.35580000  1.0 0.1288282814
H  H54  1  0.54630000  0.65670000  0.15830000  1.0 0.1203733745
H  H55  1  0.55670000  0.50000000  0.97670000  1.0 0.1109315167
H  H56  1  0.66030000  0.45220000  0.17450000  1.0 0.1203733745
H  H57  1  0.42510000  0.85890000  0.47860000  1.0 0.1109315167
H  H58  1  0.62250000  0.85480000  0.46860000  1.0 0.1288282814
H  H59  1  0.53540000  0.01740000  0.28300000  1.0 0.1288282814
H  H60  1  0.33800000  0.01340000  0.29100000  1.0 0.1109315167
H  H61  1  0.89240000  0.99060000  0.22060000  1.0 0.1109315167
H  H62  1  0.69030000  0.99110000  0.21810000  1.0 0.1288282814
H  H63  1  0.82920000  0.88420000  0.53430000  1.0 0.1288282814
H  H64  1  0.02720000  0.88770000  0.52940000  1.0 0.1109315167
C  C1  1  0.89460000  0.45490000  0.89110000  1.0 0.558477788
C  C2  1  0.91740000  0.49430000  0.00490000  1.0 -0.0303539515
C  C3  1  0.93390000  0.47010000  0.12260000  1.0 -0.101349093
C  C4  1  0.95060000  0.50660000  0.22560000  1.0 -0.1402850461
C  C5  1  0.94750000  0.57080000  0.21390000  1.0 0.1475193265
C  C6  1  0.93190000  0.59590000  0.09680000  1.0 -0.1297924754
C  C7  1  0.91820000  0.55840000  0.99390000  1.0 -0.1058255092
C  C8  1  0.95840000  0.60720000  0.32070000  1.0 -0.116869557
C  C9  1  0.96540000  0.63540000  0.41180000  1.0 -0.1058255092
C  C10  1  0.01800000  0.72260000  0.76160000  1.0 -0.0100265576
C  C11  1  0.03020000  0.65820000  0.75540000  1.0 -0.101349093
C  C12  1  0.01200000  0.63140000  0.64110000  1.0 -0.1297924754
C  C13  1  0.97760000  0.66430000  0.52940000  1.0 0.1475193265
C  C14  1  0.96300000  0.72840000  0.53580000  1.0 -0.1491180671
C  C15  1  0.98230000  0.75510000  0.65070000  1.0 -0.1058255092
C  C16  1  0.04820000  0.75230000  0.88870000  1.0 0.5310443479
C  C17  1  0.66000000  0.33770000  0.98510000  1.0 0.090917221
C  C18  1  0.53940000  0.33930000  0.98800000  1.0 -0.2082332273
C  C19  1  0.43500000  0.31010000  0.89080000  1.0 0.100789357
C  C20  1  0.45860000  0.28080000  0.79570000  1.0 -0.2082332273
C  C21  1  0.58220000  0.28120000  0.80080000  1.0 0.0829400209
C  C22  1  0.09940000  0.26380000  0.84070000  1.0 0.0709768932
C  C23  1  0.21580000  0.26250000  0.83620000  1.0 -0.1903208059
C  C24  1  0.30650000  0.31030000  0.89300000  1.0 0.1109315167
C  C25  1  0.26810000  0.35530000  0.95240000  1.0 -0.1979623434
C  C26  1  0.14650000  0.35280000  0.95350000  1.0 0.1109315167
C  C27  1  0.79910000  0.29150000  0.62270000  1.0 0.558477788
C  C28  1  0.74590000  0.25320000  0.50490000  1.0 -0.0370233443
C  C29  1  0.72070000  0.27770000  0.38420000  1.0 -0.101349093
C  C30  1  0.66860000  0.24090000  0.27480000  1.0 -0.1402850461
C  C31  1  0.64000000  0.17890000  0.28540000  1.0 0.1410912338
C  C32  1  0.67030000  0.15520000  0.40600000  1.0 -0.1491180671
C  C33  1  0.71830000  0.19170000  0.51460000  1.0 -0.101349093
C  C34  1  0.58420000  0.14320000  0.17170000  1.0 -0.1058255092
C  C35  1  0.53160000  0.11380000  0.07420000  1.0 -0.116869557
C  C36  1  0.33600000  0.02540000  0.71500000  1.0 -0.0022206833
C  C37  1  0.36770000  0.08750000  0.72090000  1.0 -0.101349093
C  C38  1  0.43130000  0.11470000  0.83850000  1.0 -0.1491180671
C  C39  1  0.46380000  0.08370000  0.95160000  1.0 0.1410912338
C  C40  1  0.42600000  0.02200000  0.94630000  1.0 -0.1618907091
C  C41  1  0.36390000  0.99380000  0.82880000  1.0 -0.1058255092
C  C42  1  0.26960000  0.99350000  0.58800000  1.0 0.5310443479
C  C43  1  0.55240000  0.39090000  0.56410000  1.0 0.0829400209
C  C44  1  0.43290000  0.38890000  0.56630000  1.0 -0.1979623434
C  C45  1  0.39280000  0.43790000  0.62100000  1.0 0.1109315167
C  C46  1  0.48450000  0.48380000  0.67600000  1.0 -0.1979623434
C  C47  1  0.60270000  0.48090000  0.67170000  1.0 0.100789357
C  C48  1  0.12130000  0.46850000  0.71480000  1.0 0.0709768932
C  C49  1  0.24160000  0.46930000  0.71670000  1.0 -0.1979623434
C  C50  1  0.26440000  0.43830000  0.62380000  1.0 0.100789357
C  C51  1  0.15970000  0.40680000  0.53120000  1.0 -0.1979623434
C  C52  1  0.04300000  0.40860000  0.53560000  1.0 0.0829400209
C  C53  1  0.10540000  0.95490000  0.10890000  1.0 0.558477788
C  C54  1  0.08260000  0.99430000  0.99510000  1.0 -0.0303539515
C  C55  1  0.06610000  0.97010000  0.87740000  1.0 -0.101349093
C  C56  1  0.04940000  0.00660000  0.77440000  1.0 -0.1402850461
C  C57  1  0.05250000  0.07080000  0.78610000  1.0 0.1475193265
C  C58  1  0.06810000  0.09590000  0.90320000  1.0 -0.1297924754
C  C59  1  0.08180000  0.05840000  0.00610000  1.0 -0.101349093
C  C60  1  0.04160000  0.10720000  0.67930000  1.0 -0.116869557
C  C61  1  0.03460000  0.13540000  0.58820000  1.0 -0.1058255092
C  C62  1  0.98200000  0.22260000  0.23840000  1.0 -0.0100265576
C  C63  1  0.96980000  0.15820000  0.24460000  1.0 -0.101349093
C  C64  1  0.98800000  0.13140000  0.35890000  1.0 -0.1297924754
C  C65  1  0.02240000  0.16430000  0.47060000  1.0 0.1475193265
C  C66  1  0.03700000  0.22840000  0.46420000  1.0 -0.1491180671
C  C67  1  0.01770000  0.25510000  0.34930000  1.0 -0.1058255092
C  C68  1  0.95180000  0.25230000  0.11130000  1.0 0.5310443479
C  C69  1  0.34000000  0.83770000  0.01490000  1.0 0.090917221
C  C70  1  0.46060000  0.83930000  0.01200000  1.0 -0.2082332273
C  C71  1  0.56500000  0.81010000  0.10920000  1.0 0.100789357
C  C72  1  0.54140000  0.78080000  0.20430000  1.0 -0.2082332273
C  C73  1  0.41780000  0.78120000  0.19920000  1.0 0.0829400209
C  C74  1  0.90060000  0.76380000  0.15930000  1.0 0.0709768932
C  C75  1  0.78420000  0.76250000  0.16380000  1.0 -0.1903208059
C  C76  1  0.69350000  0.81030000  0.10700000  1.0 0.1109315167
C  C77  1  0.73190000  0.85530000  0.04760000  1.0 -0.1979623434
C  C78  1  0.85350000  0.85280000  0.04650000  1.0 0.1109315167
C  C79  1  0.20090000  0.79150000  0.37730000  1.0 0.558477788
C  C80  1  0.25410000  0.75320000  0.49510000  1.0 -0.0370233443
C  C81  1  0.27930000  0.77770000  0.61580000  1.0 -0.101349093
C  C82  1  0.33140000  0.74090000  0.72520000  1.0 -0.1402850461
C  C83  1  0.36000000  0.67890000  0.71460000  1.0 0.1410912338
C  C84  1  0.32970000  0.65520000  0.59400000  1.0 -0.1491180671
C  C85  1  0.28170000  0.69170000  0.48540000  1.0 -0.101349093
C  C86  1  0.41580000  0.64320000  0.82830000  1.0 -0.1058255092
C  C87  1  0.46840000  0.61380000  0.92580000  1.0 -0.116869557
C  C88  1  0.66400000  0.52540000  0.28500000  1.0 -0.0022206833
C  C89  1  0.63230000  0.58750000  0.27910000  1.0 -0.101349093
C  C90  1  0.56870000  0.61470000  0.16150000  1.0 -0.1491180671
C  C91  1  0.53620000  0.58370000  0.04840000  1.0 0.1410912338
C  C92  1  0.57400000  0.52200000  0.05370000  1.0 -0.1618907091
C  C93  1  0.63610000  0.49380000  0.17120000  1.0 -0.101349093
C  C94  1  0.73040000  0.49350000  0.41200000  1.0 0.5310443479
C  C95  1  0.44760000  0.89090000  0.43590000  1.0 0.0829400209
C  C96  1  0.56710000  0.88890000  0.43370000  1.0 -0.1979623434
C  C97  1  0.60720000  0.93790000  0.37900000  1.0 0.1109315167
C  C98  1  0.51550000  0.98380000  0.32400000  1.0 -0.1979623434
C  C99  1  0.39730000  0.98090000  0.32830000  1.0 0.100789357
C  C100  1  0.87870000  0.96850000  0.28520000  1.0 0.0709768932
C  C101  1  0.75840000  0.96930000  0.28330000  1.0 -0.1979623434
C  C102  1  0.73560000  0.93830000  0.37620000  1.0 0.100789357
C  C103  1  0.84030000  0.90680000  0.46880000  1.0 -0.1979623434
C  C104  1  0.95700000  0.90860000  0.46440000  1.0 0.0829400209
N  N1  1  0.68320000  0.30900000  0.89380000  1.0 -0.2262468462
N  N2  1  0.06370000  0.30900000  0.90030000  1.0 -0.2212008846
N  N3  1  0.63950000  0.43540000  0.61840000  1.0 -0.2262468462
N  N4  1  0.02090000  0.43820000  0.62650000  1.0 -0.2212008846
N  N5  1  0.31680000  0.80900000  0.10620000  1.0 -0.2262468462
N  N6  1  0.93630000  0.80900000  0.09970000  1.0 -0.2212008846
N  N7  1  0.36050000  0.93540000  0.38160000  1.0 -0.2262468462
N  N8  1  0.97910000  0.93820000  0.37350000  1.0 -0.2212008846
O  O1  1  0.86390000  0.40024000  0.89780000  1.0 -0.5682641329
O  O2  1  0.89990000  0.47830000  0.79510000  1.0 -0.5384588641
O  O3  1  0.08400000  0.72135000  0.99000000  1.0 -0.5384588641
O  O4  1  0.03820000  0.81047000  0.88950000  1.0 -0.5682641329
O  O5  1  0.84090000  0.34395000  0.61390000  1.0 -0.5682641329
O  O6  1  0.80250000  0.26922000  0.72510000  1.0 -0.5503333074
O  O7  1  0.23030000  0.02354000  0.48570000  1.0 -0.5384588641
O  O8  1  0.25610000  0.93615000  0.58950000  1.0 -0.5550928277
O  O9  1  0.13610000  0.90024000  0.10220000  1.0 -0.5682641329
O  O10  1  0.10010000  0.97830000  0.20490000  1.0 -0.5345075291
O  O11  1  0.91600000  0.22135000  0.01000000  1.0 -0.5384588641
O  O12  1  0.96180000  0.31047000  0.11050000  1.0 -0.5682641329
O  O13  1  0.15910000  0.84395000  0.38610000  1.0 -0.5682641329
O  O14  1  0.19750000  0.76922000  0.27490000  1.0 -0.5503333074
O  O15  1  0.76970000  0.52354000  0.51430000  1.0 -0.5384588641
O  O16  1  0.74390000  0.43615000  0.41050000  1.0 -0.5550928277
