# DDEC6 charges by PACMAN v1.1 (https://github.com/mtap-research/PACMAN-charge/)
data_XAYSID_ASR_pacman
_symmetry_space_group_name_H-M   'P 1'
_cell_length_a   11.37880000
_cell_length_b   11.46150000
_cell_length_c   22.54620000
_cell_angle_alpha   85.84800000
_cell_angle_beta   102.20000000
_cell_angle_gamma   115.73400000
_symmetry_Int_Tables_number   1
_chemical_formula_structural   CoH16C26(NO2)2
_chemical_formula_sum   'Co4 H64 C104 N8 O16'
_cell_volume   2588.35313390
_cell_formula_units_Z   4
loop_
 _symmetry_equiv_pos_site_id
 _symmetry_equiv_pos_as_xyz
  1  'x, y, z'
loop_
 _atom_site_type_symbol
 _atom_site_label
 _atom_site_symmetry_multiplicity
 _atom_site_fract_x
 _atom_site_fract_y
 _atom_site_fract_z
 _atom_site_occupancy
 _atom_site_charge
Co  Co1  1  0.00157000  0.36257000  0.56303000  1.0 0.8899895414
Co  Co2  1  0.54850000  0.14480000  0.06086000  1.0 0.8899895414
Co  Co3  1  0.99843000  0.63743000  0.43697000  1.0 0.8899895414
Co  Co4  1  0.45150000  0.85520000  0.93914000  1.0 0.8899895414
H  H1  1  0.12910000  0.88550000  0.55720000  1.0 0.1277991723
H  H2  1  0.19370000  0.06040000  0.62230000  1.0 0.1185814189
H  H3  1  0.14410000  0.82340000  0.76400000  1.0 0.1185814189
H  H4  1  0.11390000  0.65310000  0.70310000  1.0 0.1277991723
H  H5  1  0.30420000  0.58030000  0.76330000  1.0 0.1277991723
H  H6  1  0.24990000  0.38910000  0.71560000  1.0 0.1277991723
H  H7  1  0.25180000  0.21820000  0.87860000  1.0 0.1185814189
H  H8  1  0.28850000  0.41250000  0.92320000  1.0 0.1185814189
H  H9  1  0.77870000  0.71670000  0.62750000  1.0 0.1185814189
H  H10  1  0.86270000  0.91580000  0.58130000  1.0 0.1185814189
H  H11  1  0.30630000  0.52200000  0.62300000  1.0 0.1185814189
H  H12  1  0.50980000  0.52250000  0.62150000  1.0 0.1185814189
H  H13  1  0.32480000  0.21570000  0.50610000  1.0 0.1277991723
H  H14  1  0.12130000  0.21520000  0.50770000  1.0 0.1185814189
H  H15  1  0.88940000  0.09960000  0.73140000  1.0 0.1185814189
H  H16  1  0.78700000  0.89340000  0.77760000  1.0 0.1185814189
H  H17  1  0.56620000  0.37780000  0.93590000  1.0 0.1277991723
H  H18  1  0.64820000  0.55670000  0.87790000  1.0 0.1185814189
H  H19  1  0.58980000  0.32570000  0.73890000  1.0 0.1185814189
H  H20  1  0.53800000  0.14710000  0.80270000  1.0 0.1277991723
H  H21  1  0.71350000  0.27000000  0.47890000  1.0 0.1117009282
H  H22  1  0.51160000  0.27240000  0.48100000  1.0 0.1277991723
H  H23  1  0.66580000  0.44970000  0.64510000  1.0 0.1185814189
H  H24  1  0.86770000  0.44730000  0.64300000  1.0 0.1185814189
H  H25  1  0.75030000  0.05620000  0.14220000  1.0 0.1117009282
H  H26  1  0.95550000  0.05800000  0.14350000  1.0 0.1277991723
H  H27  1  0.96820000  0.23460000  0.98280000  1.0 0.1277991723
H  H28  1  0.76300000  0.23280000  0.98150000  1.0 0.1117009282
H  H29  1  0.37960000  0.29030000  0.00700000  1.0 0.1117009282
H  H30  1  0.17460000  0.28860000  0.00600000  1.0 0.1277991723
H  H31  1  0.08770000  0.98400000  0.11650000  1.0 0.1277991723
H  H32  1  0.29270000  0.98570000  0.11740000  1.0 0.1117009282
H  H33  1  0.87090000  0.11450000  0.44280000  1.0 0.1277991723
H  H34  1  0.80630000  0.93960000  0.37770000  1.0 0.1185814189
H  H35  1  0.85590000  0.17660000  0.23600000  1.0 0.1185814189
H  H36  1  0.88610000  0.34690000  0.29690000  1.0 0.1277991723
H  H37  1  0.69580000  0.41970000  0.23670000  1.0 0.1277991723
H  H38  1  0.75010000  0.61090000  0.28440000  1.0 0.1277991723
H  H39  1  0.74820000  0.78180000  0.12140000  1.0 0.1185814189
H  H40  1  0.71150000  0.58750000  0.07680000  1.0 0.1185814189
H  H41  1  0.22130000  0.28330000  0.37250000  1.0 0.1185814189
H  H42  1  0.13730000  0.08420000  0.41870000  1.0 0.1185814189
H  H43  1  0.69370000  0.47800000  0.37700000  1.0 0.1185814189
H  H44  1  0.49020000  0.47750000  0.37850000  1.0 0.1185814189
H  H45  1  0.67520000  0.78430000  0.49390000  1.0 0.1277991723
H  H46  1  0.87870000  0.78480000  0.49230000  1.0 0.1185814189
H  H47  1  0.11060000  0.90040000  0.26860000  1.0 0.1185814189
H  H48  1  0.21300000  0.10660000  0.22240000  1.0 0.1185814189
H  H49  1  0.43380000  0.62220000  0.06410000  1.0 0.1277991723
H  H50  1  0.35180000  0.44330000  0.12210000  1.0 0.1185814189
H  H51  1  0.41020000  0.67430000  0.26110000  1.0 0.1185814189
H  H52  1  0.46200000  0.85290000  0.19730000  1.0 0.1277991723
H  H53  1  0.28650000  0.73000000  0.52110000  1.0 0.1117009282
H  H54  1  0.48840000  0.72760000  0.51900000  1.0 0.1277991723
H  H55  1  0.33420000  0.55030000  0.35490000  1.0 0.1185814189
H  H56  1  0.13230000  0.55270000  0.35700000  1.0 0.1185814189
H  H57  1  0.24970000  0.94380000  0.85780000  1.0 0.1117009282
H  H58  1  0.04450000  0.94200000  0.85650000  1.0 0.1277991723
H  H59  1  0.03180000  0.76540000  0.01720000  1.0 0.1277991723
H  H60  1  0.23700000  0.76720000  0.01850000  1.0 0.1117009282
H  H61  1  0.62040000  0.70970000  0.99300000  1.0 0.1117009282
H  H62  1  0.82540000  0.71140000  0.99400000  1.0 0.1277991723
H  H63  1  0.91230000  0.01600000  0.88350000  1.0 0.1277991723
H  H64  1  0.70730000  0.01430000  0.88260000  1.0 0.1117009282
C  C1  1  0.07280000  0.63640000  0.58190000  1.0 0.5709750369
C  C2  1  0.11550000  0.74710000  0.62390000  1.0 -0.0457686767
C  C3  1  0.13750000  0.87380000  0.59880000  1.0 -0.1096986026
C  C4  1  0.17130000  0.97760000  0.63770000  1.0 -0.1202588923
C  C5  1  0.17180000  0.95800000  0.70000000  1.0 0.1417307123
C  C6  1  0.14600000  0.83670000  0.72300000  1.0 -0.1308244899
C  C7  1  0.12400000  0.73220000  0.68590000  1.0 -0.0982030262
C  C8  1  0.19810000  0.06340000  0.73620000  1.0 -0.1096986026
C  C9  1  0.21990000  0.16240000  0.76410000  1.0 -0.1096986026
C  C10  1  0.30640000  0.51560000  0.84820000  1.0 -0.0130893764
C  C11  1  0.29200000  0.50670000  0.78620000  1.0 -0.0982030262
C  C12  1  0.26030000  0.39280000  0.75760000  1.0 -0.1202588923
C  C13  1  0.24320000  0.27990000  0.79230000  1.0 0.1560958564
C  C14  1  0.25880000  0.28950000  0.85470000  1.0 -0.14938519
C  C15  1  0.28500000  0.40820000  0.88180000  1.0 -0.1096986026
C  C16  1  0.34520000  0.64140000  0.87990000  1.0 0.5457147523
C  C17  1  0.93040000  0.15210000  0.62050000  1.0 0.5436122581
C  C18  1  0.88200000  0.02530000  0.65220000  1.0 -0.0130893764
C  C19  1  0.80000000  0.79210000  0.64880000  1.0 -0.1566569306
C  C20  1  0.85030000  0.91190000  0.62100000  1.0 -0.0982030262
C  C21  1  0.31000000  0.46060000  0.59960000  1.0 0.0739828065
C  C22  1  0.43190000  0.46090000  0.59870000  1.0 -0.20040644
C  C23  1  0.43740000  0.36910000  0.56370000  1.0 0.1040688693
C  C24  1  0.32110000  0.27710000  0.52960000  1.0 -0.20040644
C  C25  1  0.19920000  0.27680000  0.53050000  1.0 0.0822745323
C  C26  1  0.86480000  0.02300000  0.71040000  1.0 -0.0911740696
C  C27  1  0.80670000  0.89730000  0.73930000  1.0 -0.1566569306
C  C28  1  0.78100000  0.78520000  0.70980000  1.0 0.1277991723
C  C29  1  0.71500000  0.66360000  0.73640000  1.0 -0.1096986026
C  C30  1  0.67300000  0.56720000  0.76260000  1.0 -0.0982030262
C  C31  1  0.55340000  0.24290000  0.87690000  1.0 -0.0457686767
C  C32  1  0.58000000  0.36830000  0.89760000  1.0 -0.0911740696
C  C33  1  0.62400000  0.47470000  0.86240000  1.0 -0.1308244899
C  C34  1  0.63300000  0.45930000  0.80340000  1.0 0.1277991723
C  C35  1  0.59300000  0.33680000  0.77980000  1.0 -0.14938519
C  C36  1  0.55800000  0.22840000  0.81790000  1.0 -0.0911740696
C  C37  1  0.52090000  0.13330000  0.91960000  1.0 0.5709750369
C  C38  1  0.70400000  0.30600000  0.51220000  1.0 0.088738307
C  C39  1  0.58300000  0.30740000  0.51350000  1.0 -0.1903748293
C  C40  1  0.56870000  0.36130000  0.56320000  1.0 0.1040688693
C  C41  1  0.67530000  0.41370000  0.61180000  1.0 -0.1903748293
C  C42  1  0.79630000  0.41220000  0.61050000  1.0 0.0822745323
C  C43  1  0.79400000  0.09200000  0.11020000  1.0 0.0822745323
C  C44  1  0.91690000  0.09310000  0.11110000  1.0 -0.1903748293
C  C45  1  0.98220000  0.14650000  0.06330000  1.0 0.1040688693
C  C46  1  0.92450000  0.19880000  0.01480000  1.0 -0.1903748293
C  C47  1  0.80150000  0.19780000  0.01400000  1.0 0.088738307
C  C48  1  0.32110000  0.22890000  0.02900000  1.0 0.0822745323
C  C49  1  0.19830000  0.22790000  0.02840000  1.0 -0.20040644
C  C50  1  0.11080000  0.13620000  0.06120000  1.0 0.1040688693
C  C51  1  0.14620000  0.04540000  0.09450000  1.0 -0.20040644
C  C52  1  0.26900000  0.04640000  0.09510000  1.0 0.0822745323
C  C53  1  0.92720000  0.36360000  0.41810000  1.0 0.5709750369
C  C54  1  0.88450000  0.25290000  0.37610000  1.0 -0.0457686767
C  C55  1  0.86250000  0.12620000  0.40120000  1.0 -0.1096986026
C  C56  1  0.82870000  0.02240000  0.36230000  1.0 -0.1202588923
C  C57  1  0.82820000  0.04200000  0.30000000  1.0 0.1417307123
C  C58  1  0.85400000  0.16330000  0.27700000  1.0 -0.1308244899
C  C59  1  0.87600000  0.26780000  0.31410000  1.0 -0.0982030262
C  C60  1  0.80190000  0.93660000  0.26380000  1.0 -0.1096986026
C  C61  1  0.78010000  0.83760000  0.23590000  1.0 -0.1096986026
C  C62  1  0.69360000  0.48440000  0.15180000  1.0 -0.0130893764
C  C63  1  0.70800000  0.49330000  0.21380000  1.0 -0.0982030262
C  C64  1  0.73970000  0.60720000  0.24240000  1.0 -0.1202588923
C  C65  1  0.75680000  0.72010000  0.20770000  1.0 0.1560958564
C  C66  1  0.74120000  0.71050000  0.14530000  1.0 -0.14938519
C  C67  1  0.71500000  0.59180000  0.11820000  1.0 -0.1096986026
C  C68  1  0.65480000  0.35860000  0.12010000  1.0 0.5457147523
C  C69  1  0.06960000  0.84790000  0.37950000  1.0 0.5436122581
C  C70  1  0.11800000  0.97470000  0.34780000  1.0 -0.0130893764
C  C71  1  0.20000000  0.20790000  0.35120000  1.0 -0.1566569306
C  C72  1  0.14970000  0.08810000  0.37900000  1.0 -0.0982030262
C  C73  1  0.69000000  0.53940000  0.40040000  1.0 0.0739828065
C  C74  1  0.56810000  0.53910000  0.40130000  1.0 -0.20040644
C  C75  1  0.56260000  0.63090000  0.43630000  1.0 0.1040688693
C  C76  1  0.67890000  0.72290000  0.47040000  1.0 -0.20040644
C  C77  1  0.80080000  0.72320000  0.46950000  1.0 0.0822745323
C  C78  1  0.13520000  0.97700000  0.28960000  1.0 -0.0911740696
C  C79  1  0.19330000  0.10270000  0.26070000  1.0 -0.1566569306
C  C80  1  0.21900000  0.21480000  0.29020000  1.0 0.1277991723
C  C81  1  0.28500000  0.33640000  0.26360000  1.0 -0.1096986026
C  C82  1  0.32700000  0.43280000  0.23740000  1.0 -0.0982030262
C  C83  1  0.44660000  0.75710000  0.12310000  1.0 -0.0457686767
C  C84  1  0.42000000  0.63170000  0.10240000  1.0 -0.0911740696
C  C85  1  0.37600000  0.52530000  0.13760000  1.0 -0.1308244899
C  C86  1  0.36700000  0.54070000  0.19660000  1.0 0.1277991723
C  C87  1  0.40700000  0.66320000  0.22020000  1.0 -0.14938519
C  C88  1  0.44200000  0.77160000  0.18210000  1.0 -0.0911740696
C  C89  1  0.47910000  0.86670000  0.08040000  1.0 0.5709750369
C  C90  1  0.29600000  0.69400000  0.48780000  1.0 0.088738307
C  C91  1  0.41700000  0.69260000  0.48650000  1.0 -0.1903748293
C  C92  1  0.43130000  0.63870000  0.43680000  1.0 0.1040688693
C  C93  1  0.32470000  0.58630000  0.38820000  1.0 -0.1903748293
C  C94  1  0.20370000  0.58780000  0.38950000  1.0 0.0822745323
C  C95  1  0.20600000  0.90800000  0.88980000  1.0 0.0822745323
C  C96  1  0.08310000  0.90690000  0.88890000  1.0 -0.1903748293
C  C97  1  0.01780000  0.85350000  0.93670000  1.0 0.1040688693
C  C98  1  0.07550000  0.80120000  0.98520000  1.0 -0.1903748293
C  C99  1  0.19850000  0.80220000  0.98600000  1.0 0.088738307
C  C100  1  0.67890000  0.77110000  0.97100000  1.0 0.0822745323
C  C101  1  0.80170000  0.77210000  0.97160000  1.0 -0.20040644
C  C102  1  0.88920000  0.86380000  0.93880000  1.0 0.1040688693
C  C103  1  0.85380000  0.95460000  0.90550000  1.0 -0.20040644
C  C104  1  0.73100000  0.95360000  0.90490000  1.0 0.0822745323
N  N1  1  0.19360000  0.36850000  0.56550000  1.0 -0.2777856425
N  N2  1  0.81060000  0.35840000  0.56070000  1.0 -0.2689837948
N  N3  1  0.73630000  0.14430000  0.06170000  1.0 -0.2689837948
N  N4  1  0.35650000  0.13810000  0.06230000  1.0 -0.2608525589
N  N5  1  0.80640000  0.63150000  0.43450000  1.0 -0.2777856425
N  N6  1  0.18940000  0.64160000  0.43930000  1.0 -0.2689837948
N  N7  1  0.26370000  0.85570000  0.93830000  1.0 -0.2689837948
N  N8  1  0.64350000  0.86190000  0.93770000  1.0 -0.2608525589
O  O1  1  0.03030000  0.64400000  0.52660000  1.0 -0.5588315562
O  O2  1  0.09010000  0.53820000  0.60650000  1.0 -0.5588315562
O  O3  1  0.37510000  0.74590000  0.85120000  1.0 -0.5336421565
O  O4  1  0.36280000  0.64580000  0.93800000  1.0 -0.5588315562
O  O5  1  0.91410000  0.15040000  0.56330000  1.0 -0.5509151653
O  O6  1  0.98450000  0.25850000  0.65070000  1.0 -0.5443373457
O  O7  1  0.50970000  0.02760000  0.89820000  1.0 -0.5509151653
O  O8  1  0.49490000  0.14530000  0.97030000  1.0 -0.571774824
O  O9  1  0.96970000  0.35600000  0.47340000  1.0 -0.5588315562
O  O10  1  0.90990000  0.46180000  0.39350000  1.0 -0.5588315562
O  O11  1  0.62490000  0.25410000  0.14880000  1.0 -0.5336421565
O  O12  1  0.63720000  0.35420000  0.06200000  1.0 -0.5588315562
O  O13  1  0.08590000  0.84960000  0.43670000  1.0 -0.5509151653
O  O14  1  0.01550000  0.74150000  0.34930000  1.0 -0.5443373457
O  O15  1  0.49030000  0.97240000  0.10180000  1.0 -0.5509151653
O  O16  1  0.50510000  0.85470000  0.02970000  1.0 -0.571774824
