# DDEC6 charges by PACMAN v1.1 (https://github.com/mtap-research/PACMAN-charge/)
data_XAYSOJ_FSR_pacman
_symmetry_space_group_name_H-M   'P 1'
_cell_length_a   11.41540000
_cell_length_b   22.16160000
_cell_length_c   11.55850000
_cell_angle_alpha   90.00000000
_cell_angle_beta   115.75800000
_cell_angle_gamma   90.00000000
_symmetry_Int_Tables_number   1
_chemical_formula_structural   CoH16C26(NO2)2
_chemical_formula_sum   'Co4 H64 C104 N8 O16'
_cell_volume   2633.56343068
_cell_formula_units_Z   4
loop_
 _symmetry_equiv_pos_site_id
 _symmetry_equiv_pos_as_xyz
  1  'x, y, z'
loop_
 _atom_site_type_symbol
 _atom_site_label
 _atom_site_symmetry_multiplicity
 _atom_site_fract_x
 _atom_site_fract_y
 _atom_site_fract_z
 _atom_site_occupancy
 _atom_site_charge
Co  Co1  1  0.27385000  0.44564000  0.61672000  1.0 0.851945837
Co  Co2  1  0.31143000  0.31684000  0.89230000  1.0 0.861361076
Co  Co3  1  0.72615000  0.94564000  0.38328000  1.0 0.851945837
Co  Co4  1  0.68857000  0.81684000  0.10770000  1.0 0.861361076
H  H1  1  0.34280000  0.58130000  0.90530000  1.0 0.1284073408
H  H2  1  0.38750000  0.64350000  0.08250000  1.0 0.1190310576
H  H3  1  0.42350000  0.49550000  0.30230000  1.0 0.1190310576
H  H4  1  0.38130000  0.43440000  0.12510000  1.0 0.1284073408
H  H5  1  0.55290000  0.80410000  0.66920000  1.0 0.1190310576
H  H6  1  0.49240000  0.75610000  0.47150000  1.0 0.1190310576
H  H7  1  0.50040000  0.59550000  0.64280000  1.0 0.1284073408
H  H8  1  0.56070000  0.64520000  0.83620000  1.0 0.1284073408
H  H9  1  0.55600000  0.49730000  0.78200000  1.0 0.1108374441
H  H10  1  0.75690000  0.49950000  0.78360000  1.0 0.1284073408
H  H11  1  0.62120000  0.39080000  0.47270000  1.0 0.1284073408
H  H12  1  0.42170000  0.39160000  0.47690000  1.0 0.1108374441
H  H13  1  0.02320000  0.36960000  0.52260000  1.0 0.1108374441
H  H14  1  0.82370000  0.36700000  0.52950000  1.0 0.1284073408
H  H15  1  0.91100000  0.52830000  0.71580000  1.0 0.1190310576
H  H16  1  0.10560000  0.52580000  0.70080000  1.0 0.1108374441
H  H17  1  0.19360000  0.32690000  0.37430000  1.0 0.1284073408
H  H18  1  0.11850000  0.26430000  0.19490000  1.0 0.1190310576
H  H19  1  0.16830000  0.12030000  0.42780000  1.0 0.1190310576
H  H20  1  0.22550000  0.18340000  0.59940000  1.0 0.1284073408
H  H21  1  0.86580000  0.11810000  0.65360000  1.0 0.1284073408
H  H22  1  0.95720000  0.16520000  0.85140000  1.0 0.1190310576
H  H23  1  0.96700000  0.00540000  0.02470000  1.0 0.1108374441
H  H24  1  0.88080000  0.95820000  0.82710000  1.0 0.1108374441
H  H25  1  0.56680000  0.39290000  0.99000000  1.0 0.1108374441
H  H26  1  0.75990000  0.39760000  0.97640000  1.0 0.1284073408
H  H27  1  0.67790000  0.23680000  0.79390000  1.0 0.1284073408
H  H28  1  0.48310000  0.23810000  0.80450000  1.0 0.1108374441
H  H29  1  0.03330000  0.26670000  0.72980000  1.0 0.1108374441
H  H30  1  0.82590000  0.26450000  0.72470000  1.0 0.1284073408
H  H31  1  0.96760000  0.36850000  0.04330000  1.0 0.1390936458
H  H32  1  0.16600000  0.36910000  0.03340000  1.0 0.1108374441
H  H33  1  0.65720000  0.08130000  0.09470000  1.0 0.1284073408
H  H34  1  0.61250000  0.14350000  0.91750000  1.0 0.1190310576
H  H35  1  0.57650000  0.99550000  0.69770000  1.0 0.1190310576
H  H36  1  0.61870000  0.93440000  0.87490000  1.0 0.1284073408
H  H37  1  0.44710000  0.30410000  0.33080000  1.0 0.1190310576
H  H38  1  0.50760000  0.25610000  0.52850000  1.0 0.1190310576
H  H39  1  0.49960000  0.09550000  0.35720000  1.0 0.1284073408
H  H40  1  0.43930000  0.14520000  0.16380000  1.0 0.1284073408
H  H41  1  0.44400000  0.99730000  0.21800000  1.0 0.1108374441
H  H42  1  0.24310000  0.99950000  0.21640000  1.0 0.1284073408
H  H43  1  0.37880000  0.89080000  0.52730000  1.0 0.1284073408
H  H44  1  0.57830000  0.89160000  0.52310000  1.0 0.1108374441
H  H45  1  0.97680000  0.86960000  0.47740000  1.0 0.1108374441
H  H46  1  0.17630000  0.86700000  0.47050000  1.0 0.1284073408
H  H47  1  0.08900000  0.02830000  0.28420000  1.0 0.1190310576
H  H48  1  0.89440000  0.02580000  0.29920000  1.0 0.1108374441
H  H49  1  0.80640000  0.82690000  0.62570000  1.0 0.1284073408
H  H50  1  0.88150000  0.76430000  0.80510000  1.0 0.1190310576
H  H51  1  0.83170000  0.62030000  0.57220000  1.0 0.1190310576
H  H52  1  0.77450000  0.68340000  0.40060000  1.0 0.1284073408
H  H53  1  0.13420000  0.61810000  0.34640000  1.0 0.1284073408
H  H54  1  0.04280000  0.66520000  0.14860000  1.0 0.1190310576
H  H55  1  0.03300000  0.50540000  0.97530000  1.0 0.1108374441
H  H56  1  0.11920000  0.45820000  0.17290000  1.0 0.1108374441
H  H57  1  0.43320000  0.89290000  0.01000000  1.0 0.1108374441
H  H58  1  0.24010000  0.89760000  0.02360000  1.0 0.1284073408
H  H59  1  0.32210000  0.73680000  0.20610000  1.0 0.1284073408
H  H60  1  0.51690000  0.73810000  0.19550000  1.0 0.1108374441
H  H61  1  0.96670000  0.76670000  0.27020000  1.0 0.1108374441
H  H62  1  0.17410000  0.76450000  0.27530000  1.0 0.1284073408
H  H63  1  0.03240000  0.86850000  0.95670000  1.0 0.1390936458
H  H64  1  0.83400000  0.86910000  0.96660000  1.0 0.1108374441
C  C1  1  0.33590000  0.46130000  0.88700000  1.0 0.564426829
C  C2  1  0.36080000  0.50150000  0.00060000  1.0 -0.0298908465
C  C3  1  0.36040000  0.56410000  0.98650000  1.0 -0.1095324454
C  C4  1  0.38590000  0.60090000  0.09130000  1.0 -0.141508096
C  C5  1  0.40930000  0.57560000  0.21060000  1.0 0.1483212383
C  C6  1  0.40760000  0.51320000  0.22200000  1.0 -0.141508096
C  C7  1  0.38290000  0.47700000  0.11670000  1.0 -0.0990255001
C  C8  1  0.43450000  0.61310000  0.32020000  1.0 -0.1095324454
C  C9  1  0.46030000  0.64090000  0.41740000  1.0 -0.1095324454
C  C10  1  0.56550000  0.72880000  0.77170000  1.0 -0.0038669851
C  C11  1  0.54320000  0.76150000  0.66350000  1.0 -0.1095324454
C  C12  1  0.50650000  0.73310000  0.54560000  1.0 -0.1490480735
C  C13  1  0.49090000  0.67160000  0.53670000  1.0 0.1483212383
C  C14  1  0.51140000  0.63810000  0.64730000  1.0 -0.1285883292
C  C15  1  0.54760000  0.66780000  0.76160000  1.0 -0.0990255001
C  C16  1  0.60870000  0.76060000  0.90000000  1.0 0.5387692348
C  C17  1  0.56820000  0.47580000  0.71680000  1.0 0.0645026834
C  C18  1  0.68930000  0.47730000  0.71820000  1.0 -0.2001125543
C  C19  1  0.71530000  0.44770000  0.62810000  1.0 0.1003039401
C  C20  1  0.60950000  0.41380000  0.53630000  1.0 -0.2094669072
C  C21  1  0.49020000  0.41440000  0.53990000  1.0 0.0886162863
C  C22  1  0.99980000  0.40180000  0.56250000  1.0 0.1108374441
C  C23  1  0.88060000  0.40020000  0.56600000  1.0 -0.2001125543
C  C24  1  0.84330000  0.44740000  0.62330000  1.0 0.1108374441
C  C25  1  0.93130000  0.49520000  0.67550000  1.0 -0.2001125543
C  C26  1  0.04680000  0.49300000  0.66690000  1.0 0.0687263021
C  C27  1  0.24620000  0.30210000  0.61790000  1.0 0.56625091
C  C28  1  0.21310000  0.26110000  0.50590000  1.0 -0.0298908465
C  C29  1  0.18430000  0.28480000  0.38390000  1.0 -0.0990255001
C  C30  1  0.14290000  0.24770000  0.27800000  1.0 -0.141508096
C  C31  1  0.13720000  0.18570000  0.29400000  1.0 0.1483212383
C  C32  1  0.17030000  0.16260000  0.41580000  1.0 -0.141508096
C  C33  1  0.20540000  0.20000000  0.51720000  1.0 -0.0929856962
C  C34  1  0.08480000  0.14850000  0.17880000  1.0 -0.1095324454
C  C35  1  0.03450000  0.12100000  0.08180000  1.0 -0.1095324454
C  C36  1  0.86720000  0.03340000  0.71910000  1.0 -0.0078580466
C  C37  1  0.88830000  0.09480000  0.72920000  1.0 -0.0990255001
C  C38  1  0.94140000  0.12300000  0.84700000  1.0 -0.1490480735
C  C39  1  0.97200000  0.09100000  0.95860000  1.0 0.1390936458
C  C40  1  0.94770000  0.02830000  0.94920000  1.0 -0.1551554753
C  C41  1  0.89660000  0.00040000  0.83210000  1.0 -0.1095324454
C  C42  1  0.81400000  0.00090000  0.59290000  1.0 0.529925038
C  C43  1  0.58760000  0.36110000  0.94700000  1.0 0.0687263021
C  C44  1  0.70460000  0.36380000  0.94100000  1.0 -0.1773228749
C  C45  1  0.74250000  0.31880000  0.88520000  1.0 0.1003039401
C  C46  1  0.65590000  0.26980000  0.83310000  1.0 -0.2094669072
C  C47  1  0.53990000  0.27130000  0.84070000  1.0 0.0819665463
C  C48  1  0.01870000  0.28800000  0.79350000  1.0 0.1003039401
C  C49  1  0.89410000  0.28690000  0.78920000  1.0 -0.2164151101
C  C50  1  0.87200000  0.31940000  0.88130000  1.0 0.1108374441
C  C51  1  0.97680000  0.34810000  0.97540000  1.0 -0.2001125543
C  C52  1  0.09530000  0.34730000  0.97050000  1.0 0.0819665463
C  C53  1  0.66410000  0.96130000  0.11300000  1.0 0.564426829
C  C54  1  0.63920000  0.00150000  0.99940000  1.0 -0.0298908465
C  C55  1  0.63960000  0.06410000  0.01350000  1.0 -0.1095324454
C  C56  1  0.61410000  0.10090000  0.90870000  1.0 -0.141508096
C  C57  1  0.59070000  0.07560000  0.78940000  1.0 0.1483212383
C  C58  1  0.59240000  0.01320000  0.77800000  1.0 -0.141508096
C  C59  1  0.61710000  0.97700000  0.88330000  1.0 -0.0990255001
C  C60  1  0.56550000  0.11310000  0.67980000  1.0 -0.1095324454
C  C61  1  0.53970000  0.14090000  0.58260000  1.0 -0.1095324454
C  C62  1  0.43450000  0.22880000  0.22830000  1.0 -0.0038669851
C  C63  1  0.45680000  0.26150000  0.33650000  1.0 -0.1095324454
C  C64  1  0.49350000  0.23310000  0.45440000  1.0 -0.1490480735
C  C65  1  0.50910000  0.17160000  0.46330000  1.0 0.1483212383
C  C66  1  0.48860000  0.13810000  0.35270000  1.0 -0.1285883292
C  C67  1  0.45240000  0.16780000  0.23840000  1.0 -0.0990255001
C  C68  1  0.39130000  0.26060000  0.10000000  1.0 0.5387692348
C  C69  1  0.43180000  0.97580000  0.28320000  1.0 0.0645026834
C  C70  1  0.31070000  0.97730000  0.28180000  1.0 -0.2001125543
C  C71  1  0.28470000  0.94770000  0.37190000  1.0 0.1003039401
C  C72  1  0.39050000  0.91380000  0.46370000  1.0 -0.2094669072
C  C73  1  0.50980000  0.91440000  0.46010000  1.0 0.0886162863
C  C74  1  0.00020000  0.90180000  0.43750000  1.0 0.1108374441
C  C75  1  0.11940000  0.90020000  0.43400000  1.0 -0.2001125543
C  C76  1  0.15670000  0.94740000  0.37670000  1.0 0.1108374441
C  C77  1  0.06870000  0.99520000  0.32450000  1.0 -0.2001125543
C  C78  1  0.95320000  0.99300000  0.33310000  1.0 0.0687263021
C  C79  1  0.75380000  0.80210000  0.38210000  1.0 0.56625091
C  C80  1  0.78690000  0.76110000  0.49410000  1.0 -0.0298908465
C  C81  1  0.81570000  0.78480000  0.61610000  1.0 -0.0990255001
C  C82  1  0.85710000  0.74770000  0.72200000  1.0 -0.141508096
C  C83  1  0.86280000  0.68570000  0.70600000  1.0 0.1483212383
C  C84  1  0.82970000  0.66260000  0.58420000  1.0 -0.141508096
C  C85  1  0.79460000  0.70000000  0.48280000  1.0 -0.0929856962
C  C86  1  0.91520000  0.64850000  0.82120000  1.0 -0.1095324454
C  C87  1  0.96550000  0.62100000  0.91820000  1.0 -0.1095324454
C  C88  1  0.13280000  0.53340000  0.28090000  1.0 -0.0078580466
C  C89  1  0.11170000  0.59480000  0.27080000  1.0 -0.0990255001
C  C90  1  0.05860000  0.62300000  0.15300000  1.0 -0.1490480735
C  C91  1  0.02800000  0.59100000  0.04140000  1.0 0.1390936458
C  C92  1  0.05230000  0.52830000  0.05080000  1.0 -0.1490480735
C  C93  1  0.10340000  0.50040000  0.16790000  1.0 -0.1095324454
C  C94  1  0.18600000  0.50090000  0.40710000  1.0 0.529925038
C  C95  1  0.41240000  0.86110000  0.05300000  1.0 0.0687263021
C  C96  1  0.29540000  0.86380000  0.05900000  1.0 -0.1773228749
C  C97  1  0.25750000  0.81880000  0.11480000  1.0 0.1003039401
C  C98  1  0.34410000  0.76980000  0.16690000  1.0 -0.2094669072
C  C99  1  0.46010000  0.77130000  0.15930000  1.0 0.0819665463
C  C100  1  0.98130000  0.78800000  0.20650000  1.0 0.1003039401
C  C101  1  0.10590000  0.78690000  0.21080000  1.0 -0.2164151101
C  C102  1  0.12800000  0.81940000  0.11870000  1.0 0.1108374441
C  C103  1  0.02320000  0.84810000  0.02460000  1.0 -0.2001125543
C  C104  1  0.90470000  0.84730000  0.02950000  1.0 0.0819665463
N  N1  1  0.46420000  0.44520000  0.62690000  1.0 -0.2500754847
N  N2  1  0.08160000  0.44630000  0.61220000  1.0 -0.2311275705
N  N3  1  0.49760000  0.31520000  0.89450000  1.0 -0.263249348
N  N4  1  0.11400000  0.31700000  0.88080000  1.0 -0.2164151101
N  N5  1  0.53580000  0.94520000  0.37310000  1.0 -0.2500754847
N  N6  1  0.91840000  0.94630000  0.38780000  1.0 -0.2311275705
N  N7  1  0.50240000  0.81520000  0.10550000  1.0 -0.263249348
N  N8  1  0.88600000  0.81700000  0.11920000  1.0 -0.2164151101
O  O1  1  0.34660000  0.48330000  0.79230000  1.0 -0.5398915017
O  O2  1  0.30120000  0.40830000  0.89370000  1.0 -0.5603083699
O  O3  1  0.60470000  0.81820000  0.90130000  1.0 -0.5603083699
O  O4  1  0.64870000  0.73060000  0.00250000  1.0 -0.5398915017
O  O5  1  0.28250000  0.35460000  0.61100000  1.0 -0.5603083699
O  O6  1  0.23750000  0.27980000  0.71480000  1.0 -0.5603083699
O  O7  1  0.76850000  0.03180000  0.49150000  1.0 -0.5398915017
O  O8  1  0.81610000  0.94440000  0.59320000  1.0 -0.5466393932
O  O9  1  0.65340000  0.98330000  0.20770000  1.0 -0.5398915017
O  O10  1  0.69880000  0.90830000  0.10630000  1.0 -0.5603083699
O  O11  1  0.39530000  0.31820000  0.09870000  1.0 -0.5603083699
O  O12  1  0.35130000  0.23060000  0.99750000  1.0 -0.5398915017
O  O13  1  0.71750000  0.85460000  0.38900000  1.0 -0.5603083699
O  O14  1  0.76250000  0.77980000  0.28520000  1.0 -0.5603083699
O  O15  1  0.23150000  0.53180000  0.50850000  1.0 -0.5398915017
O  O16  1  0.18390000  0.44440000  0.40680000  1.0 -0.5466393932
