# DDEC6 charges by PACMAN v1.1 (https://github.com/mtap-research/PACMAN-charge/)
data_XAZFEJ_FSR_pacman
_symmetry_space_group_name_H-M   'P 1'
_cell_length_a   6.41400000
_cell_length_b   10.01100000
_cell_length_c   19.36900000
_cell_angle_alpha   90.00000000
_cell_angle_beta   90.00000000
_cell_angle_gamma   90.00000000
_symmetry_Int_Tables_number   1
_chemical_formula_structural   Ag3H28C12(N4O)2
_chemical_formula_sum   'Ag6 H56 C24 N16 O4'
_cell_volume   1243.69422043
_cell_formula_units_Z   2
loop_
 _symmetry_equiv_pos_site_id
 _symmetry_equiv_pos_as_xyz
  1  'x, y, z'
loop_
 _atom_site_type_symbol
 _atom_site_label
 _atom_site_symmetry_multiplicity
 _atom_site_fract_x
 _atom_site_fract_y
 _atom_site_fract_z
 _atom_site_occupancy
 _atom_site_charge
Ag  Ag1  1  0.00000000  0.14116000  0.19616000  1.0 0.1893913297
Ag  Ag2  1  0.50000000  0.64116000  0.30384000  1.0 0.1893913297
Ag  Ag3  1  0.50000000  0.35884000  0.69616000  1.0 0.1893913297
Ag  Ag4  1  0.00000000  0.85884000  0.80384000  1.0 0.1893913297
Ag  Ag5  1  0.50000000  0.50000000  0.00000000  1.0 0.1212496457
Ag  Ag6  1  0.00000000  0.00000000  0.50000000  1.0 0.1212496457
H  H1  1  0.10930000  0.02040000  0.09950000  1.0 0.2689200936
H  H2  1  0.89070000  0.02040000  0.09950000  1.0 0.2689200936
H  H3  1  0.60930000  0.52040000  0.40050000  1.0 0.2689200936
H  H4  1  0.60930000  0.47960000  0.59950000  1.0 0.2689200936
H  H5  1  0.89070000  0.97960000  0.90050000  1.0 0.2689200936
H  H6  1  0.10930000  0.97960000  0.90050000  1.0 0.2689200936
H  H7  1  0.39070000  0.47960000  0.59950000  1.0 0.2689200936
H  H8  1  0.39070000  0.52040000  0.40050000  1.0 0.2689200936
H  H9  1  0.68850000  0.25580000  0.08280000  1.0 0.0981878487
H  H10  1  0.31150000  0.25580000  0.08280000  1.0 0.0981878487
H  H11  1  0.18850000  0.75580000  0.41720000  1.0 0.0981878487
H  H12  1  0.18850000  0.24420000  0.58280000  1.0 0.0981878487
H  H13  1  0.31150000  0.74420000  0.91720000  1.0 0.0981878487
H  H14  1  0.68850000  0.74420000  0.91720000  1.0 0.0981878487
H  H15  1  0.81150000  0.24420000  0.58280000  1.0 0.0981878487
H  H16  1  0.81150000  0.75580000  0.41720000  1.0 0.0981878487
H  H17  1  0.80960000  0.37970000  0.10970000  1.0 0.0897265006
H  H18  1  0.19040000  0.37970000  0.10970000  1.0 0.0897265006
H  H19  1  0.30960000  0.87970000  0.39030000  1.0 0.0897265006
H  H20  1  0.30960000  0.12030000  0.60970000  1.0 0.0897265006
H  H21  1  0.19040000  0.62030000  0.89030000  1.0 0.0897265006
H  H22  1  0.80960000  0.62030000  0.89030000  1.0 0.0897265006
H  H23  1  0.69040000  0.12030000  0.60970000  1.0 0.0897265006
H  H24  1  0.69040000  0.87970000  0.39030000  1.0 0.0897265006
H  H25  1  0.80900000  0.43230000  0.23050000  1.0 0.0814750579
H  H26  1  0.19100000  0.43230000  0.23050000  1.0 0.0814750579
H  H27  1  0.30900000  0.93230000  0.26950000  1.0 0.0814750579
H  H28  1  0.30900000  0.06770000  0.73050000  1.0 0.0814750579
H  H29  1  0.19100000  0.56770000  0.76950000  1.0 0.0814750579
H  H30  1  0.80900000  0.56770000  0.76950000  1.0 0.0814750579
H  H31  1  0.69100000  0.06770000  0.73050000  1.0 0.0814750579
H  H32  1  0.69100000  0.93230000  0.26950000  1.0 0.0814750579
H  H33  1  0.69070000  0.34270000  0.28300000  1.0 0.0814750579
H  H34  1  0.30930000  0.34270000  0.28300000  1.0 0.0814750579
H  H35  1  0.19070000  0.84270000  0.21700000  1.0 0.0814750579
H  H36  1  0.19070000  0.15730000  0.78300000  1.0 0.0814750579
H  H37  1  0.30930000  0.65730000  0.71700000  1.0 0.0814750579
H  H38  1  0.69070000  0.65730000  0.71700000  1.0 0.0814750579
H  H39  1  0.80930000  0.15730000  0.78300000  1.0 0.0814750579
H  H40  1  0.80930000  0.84270000  0.21700000  1.0 0.0814750579
H  H41  1  0.50000000  0.11890000  0.16090000  1.0 0.0897265006
H  H42  1  0.00000000  0.61890000  0.33910000  1.0 0.0897265006
H  H43  1  0.00000000  0.38110000  0.66090000  1.0 0.0897265006
H  H44  1  0.50000000  0.88110000  0.83910000  1.0 0.0897265006
H  H45  1  0.50000000  0.14680000  0.24060000  1.0 0.0897265006
H  H46  1  0.00000000  0.64680000  0.25940000  1.0 0.0897265006
H  H47  1  0.00000000  0.35320000  0.74060000  1.0 0.0897265006
H  H48  1  0.50000000  0.85320000  0.75940000  1.0 0.0897265006
H  H49  1  0.37880000  0.57170000  0.15080000  1.0 0.0897265006
H  H50  1  0.62120000  0.57170000  0.15080000  1.0 0.0897265006
H  H51  1  0.87880000  0.07170000  0.34920000  1.0 0.0897265006
H  H52  1  0.87880000  0.92830000  0.65080000  1.0 0.0897265006
H  H53  1  0.62120000  0.42830000  0.84920000  1.0 0.0897265006
H  H54  1  0.37880000  0.42830000  0.84920000  1.0 0.0897265006
H  H55  1  0.12120000  0.92830000  0.65080000  1.0 0.0897265006
H  H56  1  0.12120000  0.07170000  0.34920000  1.0 0.0897265006
C  C1  1  0.68700000  0.32630000  0.11640000  1.0 -0.0643954344
C  C2  1  0.31300000  0.32630000  0.11640000  1.0 -0.0643954344
C  C3  1  0.18700000  0.82630000  0.38360000  1.0 -0.0643954344
C  C4  1  0.18700000  0.17370000  0.61640000  1.0 -0.0643954344
C  C5  1  0.31300000  0.67370000  0.88360000  1.0 -0.0643954344
C  C6  1  0.68700000  0.67370000  0.88360000  1.0 -0.0643954344
C  C7  1  0.81300000  0.17370000  0.61640000  1.0 -0.0643954344
C  C8  1  0.81300000  0.82630000  0.38360000  1.0 -0.0643954344
C  C9  1  0.68700000  0.37820000  0.23700000  1.0 -0.083437722
C  C10  1  0.31300000  0.37820000  0.23700000  1.0 -0.083437722
C  C11  1  0.18700000  0.87820000  0.26300000  1.0 -0.083437722
C  C12  1  0.18700000  0.12180000  0.73700000  1.0 -0.083437722
C  C13  1  0.31300000  0.62180000  0.76300000  1.0 -0.083437722
C  C14  1  0.68700000  0.62180000  0.76300000  1.0 -0.083437722
C  C15  1  0.81300000  0.12180000  0.73700000  1.0 -0.083437722
C  C16  1  0.81300000  0.87820000  0.26300000  1.0 -0.083437722
C  C17  1  0.50000000  0.18730000  0.19560000  1.0 -0.083437722
C  C18  1  0.00000000  0.68730000  0.30440000  1.0 -0.083437722
C  C19  1  0.00000000  0.31270000  0.69560000  1.0 -0.083437722
C  C20  1  0.50000000  0.81270000  0.80440000  1.0 -0.083437722
C  C21  1  0.50000000  0.51690000  0.15730000  1.0 -0.083437722
C  C22  1  0.00000000  0.01690000  0.34270000  1.0 -0.083437722
C  C23  1  0.00000000  0.98310000  0.65730000  1.0 -0.083437722
C  C24  1  0.50000000  0.48310000  0.84270000  1.0 -0.083437722
N  N1  1  0.68950000  0.26750000  0.18646000  1.0 -0.1906930843
N  N2  1  0.31050000  0.26750000  0.18646000  1.0 -0.1906930843
N  N3  1  0.18950000  0.76750000  0.31354000  1.0 -0.1906930843
N  N4  1  0.18950000  0.23250000  0.68646000  1.0 -0.1906930843
N  N5  1  0.31050000  0.73250000  0.81354000  1.0 -0.1906930843
N  N6  1  0.68950000  0.73250000  0.81354000  1.0 -0.1906930843
N  N7  1  0.81050000  0.23250000  0.68646000  1.0 -0.1906930843
N  N8  1  0.81050000  0.76750000  0.31354000  1.0 -0.1906930843
N  N9  1  0.50000000  0.40900000  0.10610000  1.0 -0.1360701027
N  N10  1  0.00000000  0.90900000  0.39390000  1.0 -0.1360701027
N  N11  1  0.00000000  0.09100000  0.60610000  1.0 -0.1360701027
N  N12  1  0.50000000  0.59100000  0.89390000  1.0 -0.1360701027
N  N13  1  0.50000000  0.46200000  0.22850000  1.0 -0.1841996761
N  N14  1  0.00000000  0.96200000  0.27150000  1.0 -0.1841996761
N  N15  1  0.00000000  0.03800000  0.72850000  1.0 -0.1841996761
N  N16  1  0.50000000  0.53800000  0.77150000  1.0 -0.1841996761
O  O1  1  0.00000000  0.06390000  0.07850000  1.0 -0.6842935683
O  O2  1  0.50000000  0.56390000  0.42150000  1.0 -0.6842935683
O  O3  1  0.50000000  0.43610000  0.57850000  1.0 -0.6842935683
O  O4  1  0.00000000  0.93610000  0.92150000  1.0 -0.6842935683
