# DDEC6 charges by PACMAN v1.1 (https://github.com/mtap-research/PACMAN-charge/)
data_XAZGAG_ion_pacman
_symmetry_space_group_name_H-M   'P 1'
_cell_length_a   6.54300000
_cell_length_b   16.84900000
_cell_length_c   29.40200000
_cell_angle_alpha   90.00000000
_cell_angle_beta   90.00000000
_cell_angle_gamma   90.00000000
_symmetry_Int_Tables_number   1
_chemical_formula_structural   Ag4H38C18SN13O8
_chemical_formula_sum   'Ag16 H152 C72 S4 N52 O32'
_cell_volume   3241.36489181
_cell_formula_units_Z   4
loop_
 _symmetry_equiv_pos_site_id
 _symmetry_equiv_pos_as_xyz
  1  'x, y, z'
loop_
 _atom_site_type_symbol
 _atom_site_label
 _atom_site_symmetry_multiplicity
 _atom_site_fract_x
 _atom_site_fract_y
 _atom_site_fract_z
 _atom_site_occupancy
 _atom_site_charge
Ag  Ag1  1  0.25000000  0.21495000  0.02167000  1.0 0.2940948978
Ag  Ag2  1  0.25000000  0.28505000  0.52167000  1.0 0.2940948978
Ag  Ag3  1  0.75000000  0.71495000  0.47833000  1.0 0.2940948978
Ag  Ag4  1  0.75000000  0.78505000  0.97833000  1.0 0.2940948978
Ag  Ag5  1  0.75000000  0.40410000  0.16851000  1.0 0.2831073142
Ag  Ag6  1  0.75000000  0.09590000  0.66851000  1.0 0.2831073142
Ag  Ag7  1  0.25000000  0.90410000  0.33149000  1.0 0.2831073142
Ag  Ag8  1  0.25000000  0.59590000  0.83149000  1.0 0.2831073142
Ag  Ag9  1  0.75000000  0.02297000  0.15955000  1.0 0.3000695034
Ag  Ag10  1  0.75000000  0.47703000  0.65955000  1.0 0.3000695034
Ag  Ag11  1  0.25000000  0.52297000  0.34045000  1.0 0.3000695034
Ag  Ag12  1  0.25000000  0.97703000  0.84045000  1.0 0.3000695034
Ag  Ag13  1  0.25000000  0.71358000  0.15327000  1.0 0.2831073142
Ag  Ag14  1  0.25000000  0.78642000  0.65327000  1.0 0.2831073142
Ag  Ag15  1  0.75000000  0.21358000  0.34673000  1.0 0.2831073142
Ag  Ag16  1  0.75000000  0.28642000  0.84673000  1.0 0.2831073142
H  H1  1  0.05340000  0.14520000  0.10950000  1.0 0.1014145202
H  H2  1  0.05340000  0.35480000  0.60950000  1.0 0.1014145202
H  H3  1  0.44660000  0.14520000  0.10950000  1.0 0.1014145202
H  H4  1  0.55340000  0.64520000  0.39050000  1.0 0.1014145202
H  H5  1  0.94660000  0.85480000  0.89050000  1.0 0.1014145202
H  H6  1  0.94660000  0.64520000  0.39050000  1.0 0.1014145202
H  H7  1  0.55340000  0.85480000  0.89050000  1.0 0.1014145202
H  H8  1  0.44660000  0.35480000  0.60950000  1.0 0.1014145202
H  H9  1  0.93620000  0.10150000  0.07100000  1.0 0.0811109833
H  H10  1  0.93620000  0.39850000  0.57100000  1.0 0.0811109833
H  H11  1  0.56380000  0.10150000  0.07100000  1.0 0.0811109833
H  H12  1  0.43620000  0.60150000  0.42900000  1.0 0.0811109833
H  H13  1  0.06380000  0.89850000  0.92900000  1.0 0.0811109833
H  H14  1  0.06380000  0.60150000  0.42900000  1.0 0.0811109833
H  H15  1  0.43620000  0.89850000  0.92900000  1.0 0.0811109833
H  H16  1  0.56380000  0.39850000  0.57100000  1.0 0.0811109833
H  H17  1  0.86880000  0.21140000  0.16970000  1.0 0.1014145202
H  H18  1  0.86880000  0.28860000  0.66970000  1.0 0.1014145202
H  H19  1  0.63120000  0.21140000  0.16970000  1.0 0.1014145202
H  H20  1  0.36880000  0.71140000  0.33030000  1.0 0.1014145202
H  H21  1  0.13120000  0.78860000  0.83030000  1.0 0.1014145202
H  H22  1  0.13120000  0.71140000  0.33030000  1.0 0.1014145202
H  H23  1  0.36880000  0.78860000  0.83030000  1.0 0.1014145202
H  H24  1  0.63120000  0.28860000  0.66970000  1.0 0.1014145202
H  H25  1  0.94360000  0.33770000  0.07760000  1.0 0.0730350241
H  H26  1  0.94360000  0.16230000  0.57760000  1.0 0.0730350241
H  H27  1  0.55640000  0.33770000  0.07760000  1.0 0.0730350241
H  H28  1  0.44360000  0.83770000  0.42240000  1.0 0.0730350241
H  H29  1  0.05640000  0.66230000  0.92240000  1.0 0.0730350241
H  H30  1  0.05640000  0.83770000  0.42240000  1.0 0.0730350241
H  H31  1  0.44360000  0.66230000  0.92240000  1.0 0.0730350241
H  H32  1  0.55640000  0.16230000  0.57760000  1.0 0.0730350241
H  H33  1  0.05120000  0.28640000  0.11430000  1.0 0.1014145202
H  H34  1  0.05120000  0.21360000  0.61430000  1.0 0.1014145202
H  H35  1  0.44880000  0.28640000  0.11430000  1.0 0.1014145202
H  H36  1  0.55120000  0.78640000  0.38570000  1.0 0.1014145202
H  H37  1  0.94880000  0.71360000  0.88570000  1.0 0.1014145202
H  H38  1  0.94880000  0.78640000  0.38570000  1.0 0.1014145202
H  H39  1  0.55120000  0.71360000  0.88570000  1.0 0.1014145202
H  H40  1  0.44880000  0.21360000  0.61430000  1.0 0.1014145202
H  H41  1  0.75000000  0.18200000  0.01310000  1.0 0.0871075988
H  H42  1  0.75000000  0.31800000  0.51310000  1.0 0.0871075988
H  H43  1  0.25000000  0.68200000  0.48690000  1.0 0.0871075988
H  H44  1  0.25000000  0.81800000  0.98690000  1.0 0.0871075988
H  H45  1  0.75000000  0.27360000  0.01870000  1.0 0.0811109833
H  H46  1  0.75000000  0.22640000  0.51870000  1.0 0.0811109833
H  H47  1  0.25000000  0.77360000  0.48130000  1.0 0.0811109833
H  H48  1  0.25000000  0.72640000  0.98130000  1.0 0.0811109833
H  H49  1  0.44540000  0.41730000  0.25580000  1.0 0.1014145202
H  H50  1  0.44540000  0.08270000  0.75580000  1.0 0.1014145202
H  H51  1  0.05460000  0.41730000  0.25580000  1.0 0.1014145202
H  H52  1  0.94540000  0.91730000  0.24420000  1.0 0.1014145202
H  H53  1  0.55460000  0.58270000  0.74420000  1.0 0.1014145202
H  H54  1  0.55460000  0.91730000  0.24420000  1.0 0.1014145202
H  H55  1  0.94540000  0.58270000  0.74420000  1.0 0.1014145202
H  H56  1  0.05460000  0.08270000  0.75580000  1.0 0.1014145202
H  H57  1  0.54680000  0.50050000  0.25280000  1.0 0.1014145202
H  H58  1  0.54680000  0.99950000  0.75280000  1.0 0.1014145202
H  H59  1  0.95320000  0.50050000  0.25280000  1.0 0.1014145202
H  H60  1  0.04680000  0.00050000  0.24720000  1.0 0.1014145202
H  H61  1  0.45320000  0.49950000  0.74720000  1.0 0.1014145202
H  H62  1  0.45320000  0.00050000  0.24720000  1.0 0.1014145202
H  H63  1  0.04680000  0.49950000  0.74720000  1.0 0.1014145202
H  H64  1  0.95320000  0.99950000  0.75280000  1.0 0.1014145202
H  H65  1  0.13070000  0.62010000  0.24990000  1.0 0.1014145202
H  H66  1  0.13070000  0.87990000  0.74990000  1.0 0.1014145202
H  H67  1  0.36930000  0.62010000  0.24990000  1.0 0.1014145202
H  H68  1  0.63070000  0.12010000  0.25010000  1.0 0.1014145202
H  H69  1  0.86930000  0.37990000  0.75010000  1.0 0.1014145202
H  H70  1  0.86930000  0.12010000  0.25010000  1.0 0.1014145202
H  H71  1  0.63070000  0.37990000  0.75010000  1.0 0.1014145202
H  H72  1  0.36930000  0.87990000  0.74990000  1.0 0.1014145202
H  H73  1  0.55440000  0.57590000  0.18590000  1.0 0.1014145202
H  H74  1  0.55440000  0.92410000  0.68590000  1.0 0.1014145202
H  H75  1  0.94560000  0.57590000  0.18590000  1.0 0.1014145202
H  H76  1  0.05440000  0.07590000  0.31410000  1.0 0.1014145202
H  H77  1  0.44560000  0.42410000  0.81410000  1.0 0.1014145202
H  H78  1  0.44560000  0.07590000  0.31410000  1.0 0.1014145202
H  H79  1  0.05440000  0.42410000  0.81410000  1.0 0.1014145202
H  H80  1  0.94560000  0.92410000  0.68590000  1.0 0.1014145202
H  H81  1  0.44500000  0.54700000  0.14200000  1.0 0.0811109833
H  H82  1  0.44500000  0.95300000  0.64200000  1.0 0.0811109833
H  H83  1  0.05500000  0.54700000  0.14200000  1.0 0.0811109833
H  H84  1  0.94500000  0.04700000  0.35800000  1.0 0.0811109833
H  H85  1  0.55500000  0.45300000  0.85800000  1.0 0.0811109833
H  H86  1  0.55500000  0.04700000  0.35800000  1.0 0.0811109833
H  H87  1  0.94500000  0.45300000  0.85800000  1.0 0.0811109833
H  H88  1  0.05500000  0.95300000  0.64200000  1.0 0.0811109833
H  H89  1  0.25000000  0.42280000  0.14310000  1.0 0.0811109833
H  H90  1  0.25000000  0.07720000  0.64310000  1.0 0.0811109833
H  H91  1  0.75000000  0.92280000  0.35690000  1.0 0.0811109833
H  H92  1  0.75000000  0.57720000  0.85690000  1.0 0.0811109833
H  H93  1  0.25000000  0.37260000  0.18740000  1.0 0.1075980477
H  H94  1  0.25000000  0.12740000  0.68740000  1.0 0.1075980477
H  H95  1  0.75000000  0.87260000  0.31260000  1.0 0.1075980477
H  H96  1  0.75000000  0.62740000  0.81260000  1.0 0.1075980477
H  H97  1  0.63090000  0.91960000  0.06360000  1.0 0.0871075988
H  H98  1  0.63090000  0.58040000  0.56360000  1.0 0.0871075988
H  H99  1  0.86910000  0.91960000  0.06360000  1.0 0.0871075988
H  H100  1  0.13090000  0.41960000  0.43640000  1.0 0.0871075988
H  H101  1  0.36910000  0.08040000  0.93640000  1.0 0.0871075988
H  H102  1  0.36910000  0.41960000  0.43640000  1.0 0.0871075988
H  H103  1  0.13090000  0.08040000  0.93640000  1.0 0.0871075988
H  H104  1  0.86910000  0.58040000  0.56360000  1.0 0.0871075988
H  H105  1  0.44630000  0.79600000  0.06410000  1.0 0.0871075988
H  H106  1  0.44630000  0.70400000  0.56410000  1.0 0.0871075988
H  H107  1  0.05370000  0.79600000  0.06410000  1.0 0.0871075988
H  H108  1  0.94630000  0.29600000  0.43590000  1.0 0.0871075988
H  H109  1  0.55370000  0.20400000  0.93590000  1.0 0.0871075988
H  H110  1  0.55370000  0.29600000  0.43590000  1.0 0.0871075988
H  H111  1  0.94630000  0.20400000  0.93590000  1.0 0.0871075988
H  H112  1  0.05370000  0.70400000  0.56410000  1.0 0.0871075988
H  H113  1  0.56110000  0.71540000  0.06360000  1.0 0.0811109833
H  H114  1  0.56110000  0.78460000  0.56360000  1.0 0.0811109833
H  H115  1  0.93890000  0.71540000  0.06360000  1.0 0.0811109833
H  H116  1  0.06110000  0.21540000  0.43640000  1.0 0.0811109833
H  H117  1  0.43890000  0.28460000  0.93640000  1.0 0.0871075988
H  H118  1  0.43890000  0.21540000  0.43640000  1.0 0.0811109833
H  H119  1  0.06110000  0.28460000  0.93640000  1.0 0.0871075988
H  H120  1  0.93890000  0.78460000  0.56360000  1.0 0.0811109833
H  H121  1  0.56430000  0.85200000  0.17510000  1.0 0.1014145202
H  H122  1  0.56430000  0.64800000  0.67510000  1.0 0.1014145202
H  H123  1  0.93570000  0.85200000  0.17510000  1.0 0.1014145202
H  H124  1  0.06430000  0.35200000  0.32490000  1.0 0.1014145202
H  H125  1  0.43570000  0.14800000  0.82490000  1.0 0.1014145202
H  H126  1  0.43570000  0.35200000  0.32490000  1.0 0.1014145202
H  H127  1  0.06430000  0.14800000  0.82490000  1.0 0.1014145202
H  H128  1  0.93570000  0.64800000  0.67510000  1.0 0.1014145202
H  H129  1  0.44650000  0.87860000  0.13180000  1.0 0.0871075988
H  H130  1  0.44650000  0.62140000  0.63180000  1.0 0.0871075988
H  H131  1  0.05350000  0.87860000  0.13180000  1.0 0.0871075988
H  H132  1  0.94650000  0.37860000  0.36820000  1.0 0.0871075988
H  H133  1  0.55350000  0.12140000  0.86820000  1.0 0.0871075988
H  H134  1  0.55350000  0.37860000  0.36820000  1.0 0.0871075988
H  H135  1  0.94650000  0.12140000  0.86820000  1.0 0.0871075988
H  H136  1  0.05350000  0.62140000  0.63180000  1.0 0.0871075988
H  H137  1  0.75000000  0.72830000  0.17400000  1.0 0.1014145202
H  H138  1  0.75000000  0.77170000  0.67400000  1.0 0.1014145202
H  H139  1  0.25000000  0.22830000  0.32600000  1.0 0.1014145202
H  H140  1  0.25000000  0.27170000  0.82600000  1.0 0.1014145202
H  H141  1  0.75000000  0.67400000  0.13130000  1.0 0.0871075988
H  H142  1  0.75000000  0.82600000  0.63130000  1.0 0.0871075988
H  H143  1  0.25000000  0.17400000  0.36870000  1.0 0.0871075988
H  H144  1  0.25000000  0.32600000  0.86870000  1.0 0.0871075988
H  H145  1  0.12460000  0.39150000  0.01150000  1.0 0.3458236307
H  H146  1  0.12460000  0.10850000  0.51150000  1.0 0.3458236307
H  H147  1  0.37540000  0.39150000  0.01150000  1.0 0.3458236307
H  H148  1  0.62460000  0.89150000  0.48850000  1.0 0.3458236307
H  H149  1  0.87540000  0.60850000  0.98850000  1.0 0.3458236307
H  H150  1  0.87540000  0.89150000  0.48850000  1.0 0.3458236307
H  H151  1  0.62460000  0.60850000  0.98850000  1.0 0.3458236307
H  H152  1  0.37540000  0.10850000  0.51150000  1.0 0.3458236307
C  C1  1  0.93330000  0.14680000  0.09073000  1.0 -0.0402426404
C  C2  1  0.93330000  0.35320000  0.59073000  1.0 -0.0402426404
C  C3  1  0.56670000  0.14680000  0.09073000  1.0 -0.0402426404
C  C4  1  0.43330000  0.64680000  0.40927000  1.0 -0.0402426404
C  C5  1  0.06670000  0.85320000  0.90927000  1.0 -0.0402426404
C  C6  1  0.06670000  0.64680000  0.40927000  1.0 -0.0402426404
C  C7  1  0.43330000  0.85320000  0.90927000  1.0 -0.0402426404
C  C8  1  0.56670000  0.35320000  0.59073000  1.0 -0.0402426404
C  C9  1  0.75000000  0.21330000  0.15050000  1.0 -0.0321519214
C  C10  1  0.75000000  0.28670000  0.65050000  1.0 -0.0321519214
C  C11  1  0.25000000  0.71330000  0.34950000  1.0 -0.0321519214
C  C12  1  0.25000000  0.78670000  0.84950000  1.0 -0.0321519214
C  C13  1  0.93350000  0.28950000  0.09480000  1.0 -0.0402426404
C  C14  1  0.93350000  0.21050000  0.59480000  1.0 -0.0402426404
C  C15  1  0.56650000  0.28950000  0.09480000  1.0 -0.0402426404
C  C16  1  0.43350000  0.78950000  0.40520000  1.0 -0.0402426404
C  C17  1  0.06650000  0.71050000  0.90520000  1.0 -0.0402426404
C  C18  1  0.06650000  0.78950000  0.40520000  1.0 -0.0402426404
C  C19  1  0.43350000  0.71050000  0.90520000  1.0 -0.0402426404
C  C20  1  0.56650000  0.21050000  0.59480000  1.0 -0.0402426404
C  C21  1  0.75000000  0.22420000  0.03500000  1.0 -0.0402426404
C  C22  1  0.75000000  0.27580000  0.53500000  1.0 -0.0402426404
C  C23  1  0.25000000  0.72420000  0.46500000  1.0 -0.0402426404
C  C24  1  0.25000000  0.77580000  0.96500000  1.0 -0.0402426404
C  C25  1  0.43310000  0.46920000  0.24266000  1.0 -0.0402426404
C  C26  1  0.43310000  0.03080000  0.74266000  1.0 -0.0402426404
C  C27  1  0.06690000  0.46920000  0.24266000  1.0 -0.0402426404
C  C28  1  0.93310000  0.96920000  0.25734000  1.0 -0.0402426404
C  C29  1  0.56690000  0.53080000  0.75734000  1.0 -0.0402426404
C  C30  1  0.56690000  0.96920000  0.25734000  1.0 -0.0402426404
C  C31  1  0.93310000  0.53080000  0.75734000  1.0 -0.0402426404
C  C32  1  0.06690000  0.03080000  0.74266000  1.0 -0.0402426404
C  C33  1  0.25000000  0.59210000  0.23970000  1.0 -0.0402426404
C  C34  1  0.25000000  0.90790000  0.73970000  1.0 -0.0402426404
C  C35  1  0.75000000  0.09210000  0.26030000  1.0 -0.0321519214
C  C36  1  0.75000000  0.40790000  0.76030000  1.0 -0.0402426404
C  C37  1  0.43710000  0.54790000  0.17460000  1.0 -0.0482672926
C  C38  1  0.43710000  0.95210000  0.67460000  1.0 -0.0482672926
C  C39  1  0.06290000  0.54790000  0.17460000  1.0 -0.0482672926
C  C40  1  0.93710000  0.04790000  0.32540000  1.0 -0.0482672926
C  C41  1  0.56290000  0.45210000  0.82540000  1.0 -0.0482672926
C  C42  1  0.56290000  0.04790000  0.32540000  1.0 -0.0482672926
C  C43  1  0.93710000  0.45210000  0.82540000  1.0 -0.0482672926
C  C44  1  0.06290000  0.95210000  0.67460000  1.0 -0.0482672926
C  C45  1  0.25000000  0.42570000  0.17580000  1.0 -0.0321519214
C  C46  1  0.25000000  0.07430000  0.67580000  1.0 -0.0321519214
C  C47  1  0.75000000  0.92570000  0.32420000  1.0 -0.0321519214
C  C48  1  0.75000000  0.57430000  0.82420000  1.0 -0.0321519214
C  C49  1  0.75000000  0.89310000  0.07520000  1.0 -0.0402426404
C  C50  1  0.75000000  0.60690000  0.57520000  1.0 -0.0402426404
C  C51  1  0.25000000  0.39310000  0.42480000  1.0 -0.0402426404
C  C52  1  0.25000000  0.10690000  0.92480000  1.0 -0.0402426404
C  C53  1  0.56500000  0.76860000  0.07517000  1.0 -0.0482672926
C  C54  1  0.56500000  0.73140000  0.57517000  1.0 -0.0482672926
C  C55  1  0.93500000  0.76860000  0.07517000  1.0 -0.0482672926
C  C56  1  0.06500000  0.26860000  0.42483000  1.0 -0.0482672926
C  C57  1  0.43500000  0.23140000  0.92483000  1.0 -0.0482672926
C  C58  1  0.43500000  0.26860000  0.42483000  1.0 -0.0482672926
C  C59  1  0.06500000  0.23140000  0.92483000  1.0 -0.0482672926
C  C60  1  0.93500000  0.73140000  0.57517000  1.0 -0.0482672926
C  C61  1  0.56640000  0.85150000  0.14243000  1.0 -0.0402426404
C  C62  1  0.56640000  0.64850000  0.64243000  1.0 -0.0402426404
C  C63  1  0.93360000  0.85150000  0.14243000  1.0 -0.0402426404
C  C64  1  0.06640000  0.35150000  0.35757000  1.0 -0.0402426404
C  C65  1  0.43360000  0.14850000  0.85757000  1.0 -0.0402426404
C  C66  1  0.43360000  0.35150000  0.35757000  1.0 -0.0402426404
C  C67  1  0.06640000  0.14850000  0.85757000  1.0 -0.0402426404
C  C68  1  0.93360000  0.64850000  0.64243000  1.0 -0.0402426404
C  C69  1  0.75000000  0.72810000  0.14130000  1.0 -0.0402426404
C  C70  1  0.75000000  0.77190000  0.64130000  1.0 -0.0402426404
C  C71  1  0.25000000  0.22810000  0.35870000  1.0 -0.0402426404
C  C72  1  0.25000000  0.27190000  0.85870000  1.0 -0.0402426404
S  S1  1  0.75000000  0.78912000  0.77509000  1.0 1.2892775982
S  S2  1  0.75000000  0.71088000  0.27509000  1.0 1.2892775982
S  S3  1  0.25000000  0.28912000  0.72491000  1.0 1.2892775982
S  S4  1  0.25000000  0.21088000  0.22491000  1.0 1.2892775982
N  N1  1  0.93790000  0.22120000  0.06344000  1.0 -0.1602793639
N  N2  1  0.93790000  0.27880000  0.56344000  1.0 -0.1602793639
N  N3  1  0.56210000  0.22120000  0.06344000  1.0 -0.1602793639
N  N4  1  0.43790000  0.72120000  0.43656000  1.0 -0.1602793639
N  N5  1  0.06210000  0.77880000  0.93656000  1.0 -0.1602793639
N  N6  1  0.06210000  0.72120000  0.43656000  1.0 -0.1602793639
N  N7  1  0.43790000  0.77880000  0.93656000  1.0 -0.1602793639
N  N8  1  0.56210000  0.27880000  0.56344000  1.0 -0.1602793639
N  N9  1  0.75000000  0.14290000  0.11980000  1.0 -0.1397776902
N  N10  1  0.75000000  0.35710000  0.61980000  1.0 -0.1397776902
N  N11  1  0.25000000  0.64290000  0.38020000  1.0 -0.1397776902
N  N12  1  0.25000000  0.85710000  0.88020000  1.0 -0.1397776902
N  N13  1  0.75000000  0.28880000  0.12360000  1.0 -0.1517867011
N  N14  1  0.75000000  0.21120000  0.62360000  1.0 -0.1517867011
N  N15  1  0.25000000  0.78880000  0.37640000  1.0 -0.1517867011
N  N16  1  0.25000000  0.71120000  0.87640000  1.0 -0.1517867011
N  N17  1  0.43770000  0.46490000  0.19209000  1.0 -0.1602793639
N  N18  1  0.43770000  0.03510000  0.69209000  1.0 -0.1602793639
N  N19  1  0.06230000  0.46490000  0.19209000  1.0 -0.1602793639
N  N20  1  0.93770000  0.96490000  0.30791000  1.0 -0.1602793639
N  N21  1  0.56230000  0.53510000  0.80791000  1.0 -0.1602793639
N  N22  1  0.56230000  0.96490000  0.30791000  1.0 -0.1602793639
N  N23  1  0.93770000  0.53510000  0.80791000  1.0 -0.1602793639
N  N24  1  0.06230000  0.03510000  0.69209000  1.0 -0.1602793639
N  N25  1  0.25000000  0.51020000  0.25990000  1.0 -0.1602793639
N  N26  1  0.25000000  0.98980000  0.75990000  1.0 -0.1602793639
N  N27  1  0.75000000  0.01020000  0.24010000  1.0 -0.1602793639
N  N28  1  0.75000000  0.48980000  0.74010000  1.0 -0.1602793639
N  N29  1  0.25000000  0.59000000  0.18980000  1.0 -0.1517867011
N  N30  1  0.25000000  0.91000000  0.68980000  1.0 -0.1517867011
N  N31  1  0.75000000  0.09000000  0.31020000  1.0 -0.1517867011
N  N32  1  0.75000000  0.41000000  0.81020000  1.0 -0.1517867011
N  N33  1  0.75000000  0.89420000  0.12560000  1.0 -0.1517867011
N  N34  1  0.75000000  0.60580000  0.62560000  1.0 -0.1517867011
N  N35  1  0.25000000  0.39420000  0.37440000  1.0 -0.1517867011
N  N36  1  0.25000000  0.10580000  0.87440000  1.0 -0.1517867011
N  N37  1  0.75000000  0.81000000  0.05820000  1.0 -0.1602793639
N  N38  1  0.75000000  0.69000000  0.55820000  1.0 -0.1602793639
N  N39  1  0.25000000  0.31000000  0.44180000  1.0 -0.1602793639
N  N40  1  0.25000000  0.19000000  0.94180000  1.0 -0.1602793639
N  N41  1  0.56230000  0.76800000  0.12548000  1.0 -0.1602793639
N  N42  1  0.56230000  0.73200000  0.62548000  1.0 -0.1602793639
N  N43  1  0.93770000  0.76800000  0.12548000  1.0 -0.1602793639
N  N44  1  0.06230000  0.26800000  0.37452000  1.0 -0.1602793639
N  N45  1  0.43770000  0.23200000  0.87452000  1.0 -0.1602793639
N  N46  1  0.43770000  0.26800000  0.37452000  1.0 -0.1602793639
N  N47  1  0.06230000  0.23200000  0.87452000  1.0 -0.1602793639
N  N48  1  0.93770000  0.73200000  0.62548000  1.0 -0.1602793639
N  N49  1  0.75000000  0.01200000  0.96190000  1.0 0.5828326195
N  N50  1  0.75000000  0.48800000  0.46190000  1.0 0.5828326195
N  N51  1  0.25000000  0.51200000  0.53810000  1.0 0.5828326195
N  N52  1  0.25000000  0.98800000  0.03810000  1.0 0.5828326195
O  O1  1  0.25000000  0.36390000  0.00490000  1.0 -0.7640207559
O  O2  1  0.25000000  0.13610000  0.50490000  1.0 -0.7640207559
O  O3  1  0.75000000  0.86390000  0.49510000  1.0 -0.7640207559
O  O4  1  0.75000000  0.63610000  0.99510000  1.0 -0.7640207559
O  O5  1  0.92120000  0.73900000  0.76420000  1.0 -0.6567982585
O  O6  1  0.57880000  0.73900000  0.76420000  1.0 -0.6567982585
O  O7  1  0.75000000  0.80600000  0.82130000  1.0 -0.6367960722
O  O8  1  0.75000000  0.85740000  0.74900000  1.0 -0.653735593
O  O9  1  0.57880000  0.76100000  0.26420000  1.0 -0.6567982585
O  O10  1  0.92120000  0.76100000  0.26420000  1.0 -0.6567982585
O  O11  1  0.75000000  0.69400000  0.32130000  1.0 -0.6367960722
O  O12  1  0.75000000  0.64260000  0.24900000  1.0 -0.653735593
O  O13  1  0.07880000  0.23900000  0.73580000  1.0 -0.6567982585
O  O14  1  0.42120000  0.23900000  0.73580000  1.0 -0.6567982585
O  O15  1  0.25000000  0.30600000  0.67870000  1.0 -0.6367960722
O  O16  1  0.25000000  0.35740000  0.75100000  1.0 -0.653735593
O  O17  1  0.07880000  0.26100000  0.23580000  1.0 -0.6567982585
O  O18  1  0.42120000  0.26100000  0.23580000  1.0 -0.6567982585
O  O19  1  0.25000000  0.19400000  0.17870000  1.0 -0.6367960722
O  O20  1  0.25000000  0.14260000  0.25100000  1.0 -0.653735593
O  O21  1  0.75000000  0.94350000  0.97190000  1.0 -0.3677734882
O  O22  1  0.75000000  0.05850000  0.98950000  1.0 -0.3334484846
O  O23  1  0.75000000  0.03150000  0.92340000  1.0 -0.3637416313
O  O24  1  0.75000000  0.55650000  0.47190000  1.0 -0.3677734882
O  O25  1  0.75000000  0.44150000  0.48950000  1.0 -0.335134849
O  O26  1  0.75000000  0.46850000  0.42340000  1.0 -0.3637416313
O  O27  1  0.25000000  0.44350000  0.52810000  1.0 -0.3677734882
O  O28  1  0.25000000  0.55850000  0.51050000  1.0 -0.3334484846
O  O29  1  0.25000000  0.53150000  0.57660000  1.0 -0.3637416313
O  O30  1  0.25000000  0.05650000  0.02810000  1.0 -0.3677734882
O  O31  1  0.25000000  0.94150000  0.01050000  1.0 -0.335134849
O  O32  1  0.25000000  0.96850000  0.07660000  1.0 -0.3677734882
