# DDEC6 charges by PACMAN v1.1 (https://github.com/mtap-research/PACMAN-charge/)
data_XEDDIX_FSR_pacman
_symmetry_space_group_name_H-M   'P 1'
_cell_length_a   15.93270000
_cell_length_b   17.49600000
_cell_length_c   18.67070000
_cell_angle_alpha   59.00300000
_cell_angle_beta   71.36310000
_cell_angle_gamma   65.47000000
_symmetry_Int_Tables_number   1
_chemical_formula_structural   Mn4H31C55N2O17F21
_chemical_formula_sum   'Mn8 H62 C110 N4 O34 F42'
_cell_volume   4021.20387025
_cell_formula_units_Z   2
loop_
 _symmetry_equiv_pos_site_id
 _symmetry_equiv_pos_as_xyz
  1  'x, y, z'
loop_
 _atom_site_type_symbol
 _atom_site_label
 _atom_site_symmetry_multiplicity
 _atom_site_fract_x
 _atom_site_fract_y
 _atom_site_fract_z
 _atom_site_occupancy
 _atom_site_charge
Mn  Mn1  1  0.97195000  0.52265000  0.58358000  1.0 1.1585293422
Mn  Mn2  1  0.14108000  0.28721000  0.60827000  1.0 1.1085671792
Mn  Mn3  1  0.27998000  0.33389000  0.41244000  1.0 1.0843965421
Mn  Mn4  1  0.15878000  0.37413000  0.72484000  1.0 1.1037591109
Mn  Mn5  1  0.02805000  0.47735000  0.41642000  1.0 1.1585293422
Mn  Mn6  1  0.85892000  0.71279000  0.39173000  1.0 1.1085671792
Mn  Mn7  1  0.72002000  0.66611000  0.58756000  1.0 1.0843965421
Mn  Mn8  1  0.84122000  0.62587000  0.27516000  1.0 1.1037591109
H  H1  1  0.78911000  0.48224000  0.52197000  1.0 0.1398313552
H  H2  1  0.86899000  0.21236000  0.67964000  1.0 0.1210992758
H  H3  1  0.33286000  0.59188000  0.17765000  1.0 0.1107389452
H  H4  1  0.64503000  0.47528000  0.53274000  1.0 0.1210992758
H  H5  1  0.23184000  0.61360000  0.65888000  1.0 0.1210992758
H  H6  1  0.05709000  0.68444000  0.22589000  1.0 0.1284828543
H  H7  1  0.05707000  0.83118000  0.11791000  1.0 0.1210992758
H  H8  1  0.02633000  0.90413000  0.51983000  1.0 0.1210992758
H  H9  1  0.12182000  0.06882000  0.63383000  1.0 0.1284828543
H  H10  1  0.50199000  0.28688000  0.50145000  1.0 0.1284828543
H  H11  1  0.35492000  0.37663000  0.67408000  1.0 0.1210992758
H  H12  1  0.18770000  0.09945000  0.95822000  1.0 0.1210992758
H  H13  1  0.00124000  0.76975000  0.54666000  1.0 0.1284828543
H  H14  1  0.14669000  0.02180000  0.80992000  1.0 0.1210992758
H  H15  1  0.63324000  0.28627000  0.52370000  1.0 0.1210992758
H  H16  1  0.43728000  0.40549000  0.27186000  1.0 0.1107389452
H  H17  1  0.25014000  0.08935000  0.40758000  1.0 0.1210992758
H  H18  1  0.21395000  0.94789000  0.06292000  1.0 0.1284828543
H  H19  1  0.55179000  0.43952000  0.16042000  1.0 0.1284828543
H  H20  1  0.55670000  0.39013000  0.10837000  1.0 0.1454255889
H  H21  1  0.63908000  0.35481000  0.15748000  1.0 0.1398313552
H  H22  1  0.53892000  0.17555000  0.30876000  1.0 0.1454255889
H  H23  1  0.62930000  0.19277000  0.24590000  1.0 0.1284828543
H  H24  1  0.54273000  0.20627000  0.21299000  1.0 0.1398313552
H  H25  1  0.29202000  0.23850000  0.88105000  1.0 0.1008389006
H  H26  1  0.31207000  0.42561000  0.90056000  1.0 0.1210992758
H  H27  1  0.21713000  0.41781000  0.95885000  1.0 0.1210992758
H  H28  1  0.22867000  0.43679000  0.86504000  1.0 0.1284828543
H  H29  1  0.39368000  0.19662000  0.00323000  1.0 0.1210992758
H  H30  1  0.29247000  0.19052000  0.02479000  1.0 0.1210992758
H  H31  1  0.31362000  0.25519000  0.04704000  1.0 0.1210992758
H  H32  1  0.21089000  0.51776000  0.47803000  1.0 0.1398313552
H  H33  1  0.13101000  0.78764000  0.32036000  1.0 0.1284828543
H  H34  1  0.66714000  0.40812000  0.82235000  1.0 0.1107389452
H  H35  1  0.35497000  0.52472000  0.46726000  1.0 0.1210992758
H  H36  1  0.76816000  0.38640000  0.34112000  1.0 0.1210992758
H  H37  1  0.94291000  0.31556000  0.77411000  1.0 0.1284828543
H  H38  1  0.94293000  0.16882000  0.88209000  1.0 0.1210992758
H  H39  1  0.97367000  0.09587000  0.48017000  1.0 0.1210992758
H  H40  1  0.87818000  0.93118000  0.36617000  1.0 0.1284828543
H  H41  1  0.49801000  0.71312000  0.49855000  1.0 0.1284828543
H  H42  1  0.64508000  0.62337000  0.32592000  1.0 0.1210992758
H  H43  1  0.81230000  0.90055000  0.04178000  1.0 0.1210992758
H  H44  1  0.99876000  0.23025000  0.45334000  1.0 0.1284828543
H  H45  1  0.85331000  0.97820000  0.19008000  1.0 0.1284828543
H  H46  1  0.36676000  0.71373000  0.47630000  1.0 0.1210992758
H  H47  1  0.56272000  0.59451000  0.72814000  1.0 0.1107389452
H  H48  1  0.74986000  0.91065000  0.59242000  1.0 0.1210992758
H  H49  1  0.78605000  0.05211000  0.93708000  1.0 0.1284828543
H  H50  1  0.44821000  0.56048000  0.83958000  1.0 0.1284828543
H  H51  1  0.44330000  0.60987000  0.89163000  1.0 0.1454255889
H  H52  1  0.36092000  0.64519000  0.84252000  1.0 0.1398313552
H  H53  1  0.46108000  0.82445000  0.69124000  1.0 0.1454255889
H  H54  1  0.37070000  0.80723000  0.75410000  1.0 0.1284828543
H  H55  1  0.45727000  0.79373000  0.78701000  1.0 0.1398313552
H  H56  1  0.70798000  0.76150000  0.11895000  1.0 0.1008389006
H  H57  1  0.68793000  0.57439000  0.09944000  1.0 0.1210992758
H  H58  1  0.78287000  0.58219000  0.04115000  1.0 0.1210992758
H  H59  1  0.77133000  0.56321000  0.13496000  1.0 0.1284828543
H  H60  1  0.60632000  0.80338000  0.99677000  1.0 0.1210992758
H  H61  1  0.70753000  0.80948000  0.97521000  1.0 0.1210992758
H  H62  1  0.68638000  0.74481000  0.95296000  1.0 0.1210992758
C  C1  1  0.84430000  0.34840000  0.59780000  1.0 -0.0296653462
C  C2  1  0.19450000  0.62290000  0.20960000  1.0 -0.0375099247
C  C3  1  0.93900000  0.35320000  0.58600000  1.0 0.5896687964
C  C4  1  0.77660000  0.42540000  0.55600000  1.0 -0.0680531812
C  C5  1  0.32990000  0.32510000  0.57170000  1.0 0.5988035212
C  C6  1  0.66860000  0.33800000  0.61350000  1.0 0.0612363061
C  C7  1  0.82330000  0.26560000  0.65030000  1.0 -0.0907801529
C  C8  1  0.10010000  0.59050000  0.62000000  1.0 0.5770321856
C  C9  1  0.19330000  0.52770000  0.27720000  1.0 0.5770321856
C  C10  1  0.41570000  0.32910000  0.58640000  1.0 -0.0171095924
C  C11  1  0.27700000  0.63940000  0.16300000  1.0 -0.1096524968
C  C12  1  0.68990000  0.42140000  0.56270000  1.0 -0.1201014062
C  C13  1  0.19630000  0.79790000  0.07570000  1.0 0.0612363061
C  C14  1  0.16950000  0.07560000  0.87250000  1.0 -0.0296653462
C  C15  1  0.19070000  0.67190000  0.63010000  1.0 -0.1096524968
C  C16  1  0.11280000  0.69460000  0.19310000  1.0 -0.0826823981
C  C17  1  0.14420000  0.84010000  0.57320000  1.0 0.0401333561
C  C18  1  0.27900000  0.72470000  0.09500000  1.0 -0.1696327617
C  C19  1  0.19400000  0.08780000  0.52250000  1.0 0.001935941
C  C20  1  0.22030000  0.16840000  0.50690000  1.0 0.5896687964
C  C21  1  0.16120000  0.17090000  0.79990000  1.0 0.5770321856
C  C22  1  0.11600000  0.67770000  0.60240000  1.0 -0.0171095924
C  C23  1  0.57720000  0.33480000  0.60880000  1.0 0.0543964366
C  C24  1  0.20440000  0.75270000  0.61490000  1.0 -0.1451017251
C  C25  1  0.11270000  0.78220000  0.12770000  1.0 -0.1301211134
C  C26  1  0.73720000  0.25990000  0.66030000  1.0 -0.1696327617
C  C27  1  0.06800000  0.84570000  0.54760000  1.0 -0.1405116429
C  C28  1  0.15710000  0.93060000  0.55270000  1.0 0.0709952274
C  C29  1  0.14450000  0.04510000  0.59440000  1.0 -0.0907801529
C  C30  1  0.18780000  0.89360000  0.00420000  1.0 0.0709952274
C  C31  1  0.49870000  0.30480000  0.54160000  1.0 -0.0826823981
C  C32  1  0.41160000  0.35940000  0.64280000  1.0 -0.1096524968
C  C33  1  0.18530000  0.05340000  0.94850000  1.0 -0.0826823981
C  C34  1  0.05330000  0.76490000  0.56300000  1.0 -0.0826823981
C  C35  1  0.15960000  0.00720000  0.86150000  1.0 -0.095966584
C  C36  1  0.57700000  0.30600000  0.55410000  1.0 -0.1301211134
C  C37  1  0.49210000  0.36440000  0.65360000  1.0 -0.1696327617
C  C38  1  0.12530000  0.96480000  0.61260000  1.0 -0.1796124696
C  C39  1  0.16860000  0.91760000  0.92650000  1.0 -0.1901793293
C  C40  1  0.45620000  0.34260000  0.28380000  1.0 0.294323654
C  C41  1  0.28690000  0.74020000  0.64740000  1.0 0.6508526812
C  C42  1  0.20160000  0.97760000  0.47980000  1.0 -0.1569762965
C  C43  1  0.22050000  0.05720000  0.46050000  1.0 -0.1096524968
C  C44  1  0.19800000  0.96250000  0.01260000  1.0 -0.1301211134
C  C45  1  0.36890000  0.73610000  0.04530000  1.0 0.6291026483
C  C46  1  0.48430000  0.40580000  0.70740000  1.0 0.6088279495
C  C47  1  0.71430000  0.17590000  0.73030000  1.0 0.6088279495
C  C48  1  0.15320000  0.85260000  0.91140000  1.0 0.6088279495
C  C49  1  0.57270000  0.38060000  0.15840000  1.0 -0.3423122456
C  C50  1  0.56250000  0.21310000  0.25230000  1.0 -0.3177989414
C  C51  1  0.23290000  0.95600000  0.40820000  1.0 0.6208198676
C  C52  1  0.04490000  0.94280000  0.67570000  1.0 0.6508526812
C  C53  1  0.25960000  0.40470000  0.91390000  1.0 -0.3033243408
C  C54  1  0.32900000  0.23110000  0.00690000  1.0 -0.2910619667
C  C55  1  0.27290000  0.29930000  0.87480000  1.0 0.2474119375
C  C56  1  0.15570000  0.65160000  0.40220000  1.0 -0.0296653462
C  C57  1  0.80550000  0.37710000  0.79040000  1.0 -0.0375099247
C  C58  1  0.06100000  0.64680000  0.41400000  1.0 0.5896687964
C  C59  1  0.22340000  0.57460000  0.44400000  1.0 -0.0680531812
C  C60  1  0.67010000  0.67490000  0.42830000  1.0 0.5988035212
C  C61  1  0.33140000  0.66200000  0.38650000  1.0 0.0612363061
C  C62  1  0.17670000  0.73440000  0.34970000  1.0 -0.0907801529
C  C63  1  0.89990000  0.40950000  0.38000000  1.0 0.5746317516
C  C64  1  0.80670000  0.47230000  0.72280000  1.0 0.5770321856
C  C65  1  0.58430000  0.67090000  0.41360000  1.0 -0.0171095924
C  C66  1  0.72300000  0.36060000  0.83700000  1.0 -0.1096524968
C  C67  1  0.31010000  0.57860000  0.43730000  1.0 -0.1201014062
C  C68  1  0.80370000  0.20210000  0.92430000  1.0 0.0612363061
C  C69  1  0.83050000  0.92440000  0.12750000  1.0 -0.0296653462
C  C70  1  0.80930000  0.32810000  0.36990000  1.0 -0.1096524968
C  C71  1  0.88720000  0.30540000  0.80690000  1.0 -0.0826823981
C  C72  1  0.85580000  0.15990000  0.42680000  1.0 0.0401333561
C  C73  1  0.72100000  0.27530000  0.90500000  1.0 -0.1696327617
C  C74  1  0.80600000  0.91220000  0.47750000  1.0 0.001935941
C  C75  1  0.77970000  0.83160000  0.49310000  1.0 0.5896687964
C  C76  1  0.83880000  0.82910000  0.20010000  1.0 0.5770321856
C  C77  1  0.88400000  0.32230000  0.39760000  1.0 -0.0171095924
C  C78  1  0.42280000  0.66520000  0.39120000  1.0 0.0543964366
C  C79  1  0.79560000  0.24730000  0.38510000  1.0 -0.1405116429
C  C80  1  0.88730000  0.21780000  0.87230000  1.0 -0.1301211134
C  C81  1  0.26280000  0.74010000  0.33970000  1.0 -0.1696327617
C  C82  1  0.93200000  0.15430000  0.45240000  1.0 -0.1405116429
C  C83  1  0.84290000  0.06940000  0.44730000  1.0 0.0709952274
C  C84  1  0.85550000  0.95490000  0.40560000  1.0 -0.0907801529
C  C85  1  0.81220000  0.10640000  0.99580000  1.0 0.0709952274
C  C86  1  0.50130000  0.69520000  0.45840000  1.0 -0.0826823981
C  C87  1  0.58840000  0.64060000  0.35720000  1.0 -0.1096524968
C  C88  1  0.81470000  0.94660000  0.05150000  1.0 -0.0826823981
C  C89  1  0.94670000  0.23510000  0.43700000  1.0 -0.0826823981
C  C90  1  0.84040000  0.99280000  0.13850000  1.0 -0.095966584
C  C91  1  0.42300000  0.69400000  0.44590000  1.0 -0.1301211134
C  C92  1  0.50790000  0.63560000  0.34640000  1.0 -0.1696327617
C  C93  1  0.87470000  0.03520000  0.38740000  1.0 -0.1796124696
C  C94  1  0.83140000  0.08240000  0.07350000  1.0 -0.1901793293
C  C95  1  0.54380000  0.65740000  0.71620000  1.0 0.294323654
C  C96  1  0.71310000  0.25980000  0.35260000  1.0 0.6508526812
C  C97  1  0.79840000  0.02240000  0.52020000  1.0 -0.1569762965
C  C98  1  0.77950000  0.94280000  0.53950000  1.0 -0.1096524968
C  C99  1  0.80200000  0.03750000  0.98740000  1.0 -0.1301211134
C  C100  1  0.63110000  0.26390000  0.95470000  1.0 0.6291026483
C  C101  1  0.51570000  0.59420000  0.29260000  1.0 0.6088279495
C  C102  1  0.28570000  0.82410000  0.26970000  1.0 0.6088279495
C  C103  1  0.84680000  0.14740000  0.08860000  1.0 0.6088279495
C  C104  1  0.42730000  0.61940000  0.84160000  1.0 -0.3423122456
C  C105  1  0.43750000  0.78690000  0.74770000  1.0 -0.3177989414
C  C106  1  0.76710000  0.04400000  0.59180000  1.0 0.6208198676
C  C107  1  0.95510000  0.05720000  0.32430000  1.0 0.6508526812
C  C108  1  0.74040000  0.59530000  0.08610000  1.0 -0.3033243408
C  C109  1  0.67100000  0.76890000  0.99310000  1.0 -0.2910619667
C  C110  1  0.72710000  0.70070000  0.12520000  1.0 0.2474119375
N  N1  1  0.52620000  0.31310000  0.23580000  1.0 0.0401333561
N  N2  1  0.28960000  0.31020000  0.93860000  1.0 -0.002027711
N  N3  1  0.47380000  0.68690000  0.76420000  1.0 0.0401333561
N  N4  1  0.71040000  0.68980000  0.06140000  1.0 -0.002027711
O  O1  1  0.07170000  0.39470000  0.64830000  1.0 -0.7730194519
O  O2  1  0.85320000  0.62230000  0.52410000  1.0 -0.7758228769
O  O3  1  0.94970000  0.43510000  0.54310000  1.0 -0.5513806929
O  O4  1  0.00420000  0.27970000  0.61670000  1.0 -0.4925203314
O  O5  1  0.26670000  0.46940000  0.30960000  1.0 -0.5672659268
O  O6  1  0.11720000  0.51010000  0.29920000  1.0 -0.4828993669
O  O7  1  0.02440000  0.60190000  0.60250000  1.0 -0.5286968473
O  O8  1  0.25760000  0.32510000  0.62410000  1.0 -0.5382770092
O  O9  1  0.21300000  0.18070000  0.56890000  1.0 -0.5286968473
O  O10  1  0.33750000  0.32200000  0.50410000  1.0 -0.5286968473
O  O11  1  0.16270000  0.51430000  0.65210000  1.0 -0.5286968473
O  O12  1  0.02630000  0.42190000  0.79780000  1.0 -0.0680531812
O  O13  1  0.14530000  0.18400000  0.73320000  1.0 -0.5102369776
O  O14  1  0.25000000  0.21940000  0.43180000  1.0 -0.5206395974
O  O15  1  0.41320000  0.29110000  0.34500000  1.0 -0.4448140552
O  O16  1  0.16840000  0.23150000  0.81250000  1.0 -0.5382770092
O  O17  1  0.23460000  0.36400000  0.81010000  1.0 -0.4672583332
O  O18  1  0.92830000  0.60530000  0.35170000  1.0 -0.7730194519
O  O19  1  0.14680000  0.37770000  0.47590000  1.0 -0.7730194519
O  O20  1  0.05030000  0.56490000  0.45690000  1.0 -0.5513806929
O  O21  1  0.99580000  0.72030000  0.38330000  1.0 -0.4925203314
O  O22  1  0.73330000  0.53060000  0.69040000  1.0 -0.5672659268
O  O23  1  0.88280000  0.48990000  0.70080000  1.0 -0.4828993669
O  O24  1  0.97560000  0.39810000  0.39750000  1.0 -0.5286968473
O  O25  1  0.74240000  0.67490000  0.37590000  1.0 -0.5286968473
O  O26  1  0.78700000  0.81930000  0.43110000  1.0 -0.5286968473
O  O27  1  0.66250000  0.67800000  0.49590000  1.0 -0.5286968473
O  O28  1  0.83730000  0.48570000  0.34790000  1.0 -0.5286968473
O  O29  1  0.97370000  0.57810000  0.20220000  1.0 -0.0680531812
O  O30  1  0.85470000  0.81600000  0.26680000  1.0 -0.5102369776
O  O31  1  0.75000000  0.78060000  0.56820000  1.0 -0.5206395974
O  O32  1  0.58680000  0.70890000  0.65500000  1.0 -0.4448140552
O  O33  1  0.83160000  0.76850000  0.18750000  1.0 -0.5382770092
O  O34  1  0.76540000  0.63600000  0.18990000  1.0 -0.4672583332
F  F1  1  0.65250000  0.15440000  0.72780000  1.0 -0.1405116429
F  F2  1  0.26100000  0.76830000  0.70640000  1.0 -0.2000643035
F  F3  1  0.34200000  0.65650000  0.67400000  1.0 -0.1901793293
F  F4  1  0.44070000  0.66090000  0.07110000  1.0 -0.2056137016
F  F5  1  0.33990000  0.79330000  0.58810000  1.0 -0.1901793293
F  F6  1  0.78790000  0.10150000  0.75700000  1.0 -0.1901793293
F  F7  1  0.37180000  0.76510000  0.96300000  1.0 -0.2000643035
F  F8  1  0.40080000  0.44300000  0.73650000  1.0 -0.1901793293
F  F9  1  0.39390000  0.79930000  0.04410000  1.0 -0.1901793293
F  F10  1  0.51020000  0.49080000  0.65840000  1.0 -0.1901793293
F  F11  1  0.20550000  0.76590000  0.93930000  1.0 -0.1796124696
F  F12  1  0.15470000  0.87740000  0.83010000  1.0 -0.1901793293
F  F13  1  0.06670000  0.84160000  0.94500000  1.0 -0.1901793293
F  F14  1  0.67400000  0.18300000  0.80840000  1.0 -0.2000643035
F  F15  1  0.54400000  0.36650000  0.75510000  1.0 -0.1696327617
F  F16  1  0.24290000  0.02550000  0.32820000  1.0 -0.2000643035
F  F17  1  0.22910000  0.88590000  0.40480000  1.0 -0.1901793293
F  F18  1  0.33570000  0.91390000  0.41110000  1.0 -0.1796124696
F  F19  1  0.06720000  0.85030000  0.73030000  1.0 -0.1901793293
F  F20  1  0.01040000  0.98850000  0.72310000  1.0 -0.2000643035
F  F21  1  0.96340000  0.95020000  0.65340000  1.0 -0.2257677456
F  F22  1  0.34750000  0.84560000  0.27220000  1.0 -0.1405116429
F  F23  1  0.73900000  0.23170000  0.29360000  1.0 -0.2000643035
F  F24  1  0.65800000  0.34350000  0.32600000  1.0 -0.1901793293
F  F25  1  0.55930000  0.33910000  0.92890000  1.0 -0.2056137016
F  F26  1  0.66010000  0.20670000  0.41190000  1.0 -0.1901793293
F  F27  1  0.21210000  0.89850000  0.24300000  1.0 -0.1901793293
F  F28  1  0.62820000  0.23490000  0.03700000  1.0 -0.2000643035
F  F29  1  0.59920000  0.55700000  0.26350000  1.0 -0.1901793293
F  F30  1  0.60610000  0.20070000  0.95590000  1.0 -0.1901793293
F  F31  1  0.48980000  0.50920000  0.34160000  1.0 -0.1901793293
F  F32  1  0.79450000  0.23410000  0.06070000  1.0 -0.1796124696
F  F33  1  0.84530000  0.12260000  0.16990000  1.0 -0.1901793293
F  F34  1  0.93330000  0.15840000  0.05500000  1.0 -0.1901793293
F  F35  1  0.32600000  0.81700000  0.19160000  1.0 -0.2000643035
F  F36  1  0.45600000  0.63350000  0.24490000  1.0 -0.1696327617
F  F37  1  0.75710000  0.97450000  0.67180000  1.0 -0.2000643035
F  F38  1  0.77090000  0.11410000  0.59520000  1.0 -0.1796124696
F  F39  1  0.66430000  0.08610000  0.58890000  1.0 -0.1796124696
F  F40  1  0.93280000  0.14970000  0.26970000  1.0 -0.1901793293
F  F41  1  0.98960000  0.01150000  0.27690000  1.0 -0.2000643035
F  F42  1  0.03660000  0.04980000  0.34660000  1.0 -0.2257677456
