# DDEC6 charges by PACMAN v1.1 (https://github.com/mtap-research/PACMAN-charge/)
data_XEDDAP_FSR_pacman
_symmetry_space_group_name_H-M   'P 1'
_cell_length_a   15.80960000
_cell_length_b   16.86340000
_cell_length_c   17.84420000
_cell_angle_alpha   107.32000000
_cell_angle_beta   99.31300000
_cell_angle_gamma   115.05500000
_symmetry_Int_Tables_number   1
_chemical_formula_structural   Mn4H46C60N4O17F18
_chemical_formula_sum   'Mn8 H92 C120 N8 O34 F36'
_cell_volume   3879.58397220
_cell_formula_units_Z   2
loop_
 _symmetry_equiv_pos_site_id
 _symmetry_equiv_pos_as_xyz
  1  'x, y, z'
loop_
 _atom_site_type_symbol
 _atom_site_label
 _atom_site_symmetry_multiplicity
 _atom_site_fract_x
 _atom_site_fract_y
 _atom_site_fract_z
 _atom_site_occupancy
 _atom_site_charge
Mn  Mn1  1  0.57639000  0.10588000  0.58013000  1.0 1.148428041
Mn  Mn2  1  0.46163000  0.11480000  0.38353000  1.0 1.0733671966
Mn  Mn3  1  0.48121000  0.27288000  0.57174000  1.0 0.9800864341
Mn  Mn4  1  0.75261000  0.08896000  0.73335000  1.0 1.0013018432
Mn  Mn5  1  0.42361000  0.89412000  0.41987000  1.0 1.148428041
Mn  Mn6  1  0.53837000  0.88520000  0.61647000  1.0 1.0733671966
Mn  Mn7  1  0.51879000  0.72712000  0.42826000  1.0 0.9800864341
Mn  Mn8  1  0.24739000  0.91104000  0.26665000  1.0 1.0013018432
H  H1  1  0.72215000  0.99447000  0.48880000  1.0 0.1297048593
H  H2  1  0.72617000  0.11419000  0.32480000  1.0 0.1197409833
H  H3  1  0.86851000  0.99836000  0.47966000  1.0 0.1197409833
H  H4  1  0.39751000  0.24791000  0.80089000  1.0 0.1197409833
H  H5  1  0.53081000  0.09094000  0.76751000  1.0 0.1297048593
H  H6  1  0.49301000  0.04886000  0.87305000  1.0 0.1197409833
H  H7  1  0.10501000  0.96725000  0.31827000  1.0 0.1197409833
H  H8  1  0.00102000  0.73235000  0.31643000  1.0 0.1197409833
H  H9  1  0.68785000  0.29829000  0.36183000  1.0 0.1297048593
H  H10  1  0.05751000  0.19785000  0.49130000  1.0 0.1197409833
H  H11  1  0.52435000  0.17462000  0.17916000  1.0 0.1297048593
H  H12  1  0.18432000  0.69109000  0.46203000  1.0 0.1197409833
H  H13  1  0.25871000  0.95635000  0.03398000  1.0 0.1297048593
H  H14  1  0.21718000  0.22704000  0.49859000  1.0 0.1197409833
H  H15  1  0.05048000  0.58087000  0.48278000  1.0 0.1197409833
H  H16  1  0.28182000  0.99379000  0.92114000  1.0 0.1197409833
H  H17  1  0.87324000  0.61978000  0.53194000  1.0 0.1297048593
H  H18  1  0.75209000  0.51787000  0.56775000  1.0 0.1297048593
H  H19  1  0.58775000  0.49685000  0.63245000  1.0 0.1197409833
H  H20  1  0.93150000  0.27603000  0.81637000  1.0 0.1098651173
H  H21  1  0.63202000  0.69640000  0.71906000  1.0 0.1297048593
H  H22  1  0.57260000  0.67913000  0.63094000  1.0 0.140937637
H  H23  1  0.64705000  0.64111000  0.63932000  1.0 0.1297048593
H  H24  1  0.18653000  0.40555000  0.94348000  1.0 0.0997290904
H  H25  1  0.08957000  0.41165000  0.92521000  1.0 0.0821812483
H  H26  1  0.12271000  0.37158000  0.85143000  1.0 0.1098651173
H  H27  1  0.41507000  0.53034000  0.70926000  1.0 0.0997290904
H  H28  1  0.44381000  0.62419000  0.69454000  1.0 0.0890652359
H  H29  1  0.51544000  0.62443000  0.76660000  1.0 0.0890652359
H  H30  1  0.00780000  0.17907000  0.92802000  1.0 0.1197409833
H  H31  1  0.09350000  0.27468000  0.00090000  1.0 0.0575896273
H  H32  1  0.11507000  0.22442000  0.92314000  1.0 0.0890652359
H  H33  1  0.46059000  0.39386000  0.72954000  1.0 0.1197409833
H  H34  1  0.54375000  0.62348000  0.80467000  1.0 0.0997290904
H  H35  1  0.48817000  0.54295000  0.83416000  1.0 0.1197409833
H  H36  1  0.43401000  0.59138000  0.80135000  1.0 0.1098651173
H  H37  1  0.37712000  0.47369000  0.60791000  1.0 0.0997290904
H  H38  1  0.48024000  0.56139000  0.62557000  1.0 0.1297048593
H  H39  1  0.40714000  0.57678000  0.66992000  1.0 0.0821812483
H  H40  1  0.07650000  0.26507000  0.87420000  1.0 0.140937637
H  H41  1  0.14571000  0.32237000  0.96748000  1.0 0.0478962193
H  H42  1  0.07100000  0.35157000  0.93280000  1.0 0.0997290904
H  H43  1  0.87357000  0.12279000  0.91035000  1.0 0.1297048593
H  H44  1  0.97714000  0.24148000  0.05231000  1.0 0.1098651173
H  H45  1  0.09024000  0.30585000  0.06879000  1.0 0.0677379223
H  H46  1  0.04340000  0.19445000  0.03860000  1.0 0.0997290904
H  H47  1  0.27785000  0.00553000  0.51120000  1.0 0.1297048593
H  H48  1  0.27383000  0.88581000  0.67520000  1.0 0.1197409833
H  H49  1  0.13149000  0.00164000  0.52034000  1.0 0.1197409833
H  H50  1  0.60249000  0.75209000  0.19911000  1.0 0.1197409833
H  H51  1  0.46919000  0.90906000  0.23249000  1.0 0.1297048593
H  H52  1  0.50699000  0.95114000  0.12695000  1.0 0.1197409833
H  H53  1  0.89499000  0.03275000  0.68173000  1.0 0.1197409833
H  H54  1  0.99898000  0.26765000  0.68357000  1.0 0.1197409833
H  H55  1  0.31215000  0.70171000  0.63817000  1.0 0.1297048593
H  H56  1  0.94249000  0.80215000  0.50870000  1.0 0.1197409833
H  H57  1  0.47565000  0.82538000  0.82084000  1.0 0.1297048593
H  H58  1  0.81568000  0.30891000  0.53797000  1.0 0.1197409833
H  H59  1  0.74129000  0.04365000  0.96602000  1.0 0.1297048593
H  H60  1  0.78282000  0.77296000  0.50141000  1.0 0.1197409833
H  H61  1  0.94952000  0.41913000  0.51722000  1.0 0.1197409833
H  H62  1  0.71818000  0.00621000  0.07886000  1.0 0.1197409833
H  H63  1  0.12676000  0.38022000  0.46806000  1.0 0.1297048593
H  H64  1  0.24791000  0.48213000  0.43225000  1.0 0.1297048593
H  H65  1  0.41225000  0.50315000  0.36755000  1.0 0.1197409833
H  H66  1  0.06850000  0.72397000  0.18363000  1.0 0.1197409833
H  H67  1  0.36798000  0.30360000  0.28094000  1.0 0.1297048593
H  H68  1  0.42740000  0.32087000  0.36906000  1.0 0.140937637
H  H69  1  0.35295000  0.35889000  0.36068000  1.0 0.1297048593
H  H70  1  0.81347000  0.59445000  0.05652000  1.0 0.0997290904
H  H71  1  0.91043000  0.58835000  0.07479000  1.0 0.0821812483
H  H72  1  0.87729000  0.62842000  0.14857000  1.0 0.1098651173
H  H73  1  0.58493000  0.46966000  0.29074000  1.0 0.0997290904
H  H74  1  0.55619000  0.37581000  0.30546000  1.0 0.0890652359
H  H75  1  0.48456000  0.37557000  0.23340000  1.0 0.0890652359
H  H76  1  0.99220000  0.82093000  0.07198000  1.0 0.1197409833
H  H77  1  0.90650000  0.72532000  0.99910000  1.0 0.0575896273
H  H78  1  0.88493000  0.77558000  0.07686000  1.0 0.0890652359
H  H79  1  0.53941000  0.60614000  0.27046000  1.0 0.1197409833
H  H80  1  0.45625000  0.37652000  0.19533000  1.0 0.0997290904
H  H81  1  0.51183000  0.45705000  0.16584000  1.0 0.1197409833
H  H82  1  0.56599000  0.40862000  0.19865000  1.0 0.1098651173
H  H83  1  0.62288000  0.52631000  0.39209000  1.0 0.0997290904
H  H84  1  0.51976000  0.43861000  0.37443000  1.0 0.1297048593
H  H85  1  0.59286000  0.42322000  0.33008000  1.0 0.0821812483
H  H86  1  0.92350000  0.73493000  0.12580000  1.0 0.140937637
H  H87  1  0.85429000  0.67763000  0.03252000  1.0 0.0478962193
H  H88  1  0.92900000  0.64843000  0.06720000  1.0 0.0997290904
H  H89  1  0.12643000  0.87721000  0.08965000  1.0 0.1297048593
H  H90  1  0.02286000  0.75852000  0.94769000  1.0 0.1098651173
H  H91  1  0.90976000  0.69415000  0.93121000  1.0 0.0677379223
H  H92  1  0.95660000  0.80555000  0.96140000  1.0 0.0997290904
C  C1  1  0.71050000  0.05530000  0.40850000  1.0 -0.0045643146
C  C2  1  0.75240000  0.01960000  0.45430000  1.0 -0.0766846952
C  C3  1  0.61940000  0.06020000  0.41770000  1.0 0.5781965536
C  C4  1  0.50000000  0.20510000  0.70630000  1.0 0.5595710459
C  C5  1  0.28050000  0.12170000  0.41410000  1.0 0.5874800864
C  C6  1  0.47220000  0.17630000  0.77480000  1.0 -0.0182370306
C  C7  1  0.75460000  0.09080000  0.35590000  1.0 -0.1092924853
C  C8  1  0.88490000  0.05740000  0.39620000  1.0 0.0478962193
C  C9  1  0.98480000  0.06580000  0.39850000  1.0 0.0427059135
C  C10  1  0.83990000  0.02140000  0.44830000  1.0 -0.1197158118
C  C11  1  0.17610000  0.10050000  0.40840000  1.0 -0.0305958614
C  C12  1  0.43250000  0.13330000  0.90970000  1.0 0.0478962193
C  C13  1  0.84150000  0.09130000  0.34950000  1.0 -0.1668079836
C  C14  1  0.40070000  0.18960000  0.88460000  1.0 -0.1197158118
C  C15  1  0.37430000  0.04100000  0.19290000  1.0 0.5595710459
C  C16  1  0.41970000  0.21080000  0.81740000  1.0 -0.1279607333
C  C17  1  0.19310000  0.79390000  0.37270000  1.0 0.573693234
C  C18  1  0.38840000  0.06170000  0.11710000  1.0 -0.0140817148
C  C19  1  0.49820000  0.11610000  0.79710000  1.0 -0.0887346906
C  C20  1  0.61050000  0.33630000  0.47870000  1.0 0.5595710459
C  C21  1  0.47750000  0.09220000  0.86130000  1.0 -0.1391094647
C  C22  1  0.09540000  0.01360000  0.35330000  1.0 -0.0887346906
C  C23  1  0.10680000  0.72370000  0.38780000  1.0 -0.0182370306
C  C24  1  0.93140000  0.63490000  0.36200000  1.0 -0.1092924853
C  C25  1  0.01160000  0.70220000  0.34990000  1.0 -0.1197158118
C  C26  1  0.99830000  0.99410000  0.34920000  1.0 -0.1391094647
C  C27  1  0.41890000  0.11050000  0.98340000  1.0 0.0575896273
C  C28  1  0.72570000  0.36330000  0.39680000  1.0 -0.1279607333
C  C29  1  0.94450000  0.59030000  0.41150000  1.0 0.0427059135
C  C30  1  0.06640000  0.15140000  0.45560000  1.0 -0.1391094647
C  C31  1  0.80580000  0.42280000  0.37960000  1.0 -0.2142900867
C  C32  1  0.47530000  0.13830000  0.12710000  1.0 -0.1197158118
C  C33  1  0.86110000  0.52180000  0.43050000  1.0 0.0478962193
C  C34  1  0.49190000  0.16300000  0.06010000  1.0 -0.1494362297
C  C35  1  0.12070000  0.67770000  0.43690000  1.0 -0.0887346906
C  C36  1  0.70180000  0.39950000  0.46510000  1.0 -0.0305958614
C  C37  1  0.31770000  0.00890000  0.04110000  1.0 -0.0887346906
C  C38  1  0.16270000  0.16900000  0.46030000  1.0 -0.098586422
C  C39  1  0.04020000  0.61120000  0.44930000  1.0 -0.1391094647
C  C40  1  0.82910000  0.61290000  0.31670000  1.0 0.5781965536
C  C41  1  0.35080000  0.23410000  0.93200000  1.0 0.5781965536
C  C42  1  0.59470000  0.24520000  0.07650000  1.0 0.6012446466
C  C43  1  0.33110000  0.03140000  0.97300000  1.0 -0.1092924853
C  C44  1  0.83760000  0.55450000  0.49780000  1.0 -0.1391094647
C  C45  1  0.76190000  0.49390000  0.51780000  1.0 -0.1092924853
C  C46  1  0.88240000  0.12500000  0.28780000  1.0 0.5874800864
C  C47  1  0.83680000  0.37920000  0.31720000  1.0 0.6175204101
C  C48  1  0.91490000  0.89850000  0.29220000  1.0 0.5408004108
C  C49  1  0.52580000  0.48530000  0.63570000  1.0 0.0575896273
C  C50  1  0.95240000  0.24330000  0.84130000  1.0 -0.0140817148
C  C51  1  0.60000000  0.65240000  0.66200000  1.0 -0.4298763392
C  C52  1  0.12000000  0.37500000  0.90600000  1.0 -0.2803901352
C  C53  1  0.46900000  0.58700000  0.71100000  1.0 -0.0564971161
C  C54  1  0.06700000  0.23800000  0.94170000  1.0 -0.0305958614
C  C55  1  0.46200000  0.42500000  0.69430000  1.0 -0.0393604418
C  C56  1  0.48100000  0.57000000  0.79490000  1.0 -0.227711272
C  C57  1  0.43100000  0.53400000  0.65000000  1.0 -0.098586422
C  C58  1  0.08100000  0.29900000  0.93000000  1.0 0.020316727
C  C59  1  0.91950000  0.16360000  0.89330000  1.0 0.0478962193
C  C60  1  0.03200000  0.24500000  0.03430000  1.0 -0.2673857478
C  C61  1  0.28950000  0.94470000  0.59150000  1.0 -0.0045643146
C  C62  1  0.24760000  0.98040000  0.54570000  1.0 -0.0766846952
C  C63  1  0.38060000  0.93980000  0.58230000  1.0 0.5781965536
C  C64  1  0.50000000  0.79490000  0.29370000  1.0 0.5595710459
C  C65  1  0.71950000  0.87830000  0.58590000  1.0 0.5874800864
C  C66  1  0.52780000  0.82370000  0.22520000  1.0 -0.0182370306
C  C67  1  0.24540000  0.90920000  0.64410000  1.0 -0.1092924853
C  C68  1  0.11510000  0.94260000  0.60380000  1.0 0.0478962193
C  C69  1  0.01520000  0.93420000  0.60150000  1.0 0.0427059135
C  C70  1  0.16010000  0.97860000  0.55170000  1.0 -0.1197158118
C  C71  1  0.82390000  0.89950000  0.59160000  1.0 -0.0305958614
C  C72  1  0.56750000  0.86670000  0.09030000  1.0 0.0478962193
C  C73  1  0.15850000  0.90870000  0.65050000  1.0 -0.1668079836
C  C74  1  0.59930000  0.81040000  0.11540000  1.0 -0.1197158118
C  C75  1  0.62570000  0.95900000  0.80710000  1.0 0.5595710459
C  C76  1  0.58030000  0.78920000  0.18260000  1.0 -0.1391094647
C  C77  1  0.80690000  0.20610000  0.62730000  1.0 0.573693234
C  C78  1  0.61160000  0.93830000  0.88290000  1.0 -0.0182370306
C  C79  1  0.50180000  0.88390000  0.20290000  1.0 -0.0887346906
C  C80  1  0.38950000  0.66370000  0.52130000  1.0 0.5595710459
C  C81  1  0.52250000  0.90780000  0.13870000  1.0 -0.1391094647
C  C82  1  0.90460000  0.98640000  0.64670000  1.0 -0.0887346906
C  C83  1  0.89320000  0.27630000  0.61220000  1.0 -0.0182370306
C  C84  1  0.06860000  0.36510000  0.63800000  1.0 -0.1092924853
C  C85  1  0.98840000  0.29780000  0.65010000  1.0 -0.1197158118
C  C86  1  0.00170000  0.00590000  0.65080000  1.0 -0.1391094647
C  C87  1  0.58110000  0.88950000  0.01660000  1.0 0.0677379223
C  C88  1  0.27430000  0.63670000  0.60320000  1.0 -0.1279607333
C  C89  1  0.05550000  0.40970000  0.58850000  1.0 0.0427059135
C  C90  1  0.93360000  0.84860000  0.54440000  1.0 -0.1391094647
C  C91  1  0.19420000  0.57720000  0.62040000  1.0 -0.2142900867
C  C92  1  0.52470000  0.86170000  0.87290000  1.0 -0.1197158118
C  C93  1  0.13890000  0.47820000  0.56950000  1.0 0.0478962193
C  C94  1  0.50810000  0.83700000  0.93990000  1.0 -0.1494362297
C  C95  1  0.87930000  0.32230000  0.56310000  1.0 -0.0887346906
C  C96  1  0.29820000  0.60050000  0.53490000  1.0 -0.0305958614
C  C97  1  0.68230000  0.99110000  0.95890000  1.0 -0.0887346906
C  C98  1  0.83730000  0.83100000  0.53970000  1.0 -0.098586422
C  C99  1  0.95980000  0.38880000  0.55070000  1.0 -0.1391094647
C  C100  1  0.17090000  0.38710000  0.68330000  1.0 0.5781965536
C  C101  1  0.64920000  0.76590000  0.06800000  1.0 0.5781965536
C  C102  1  0.40530000  0.75480000  0.92350000  1.0 0.6012446466
C  C103  1  0.66890000  0.96860000  0.02700000  1.0 -0.1092924853
C  C104  1  0.16240000  0.44550000  0.50220000  1.0 -0.1391094647
C  C105  1  0.23810000  0.50610000  0.48220000  1.0 -0.1092924853
C  C106  1  0.11760000  0.87500000  0.71220000  1.0 0.5874800864
C  C107  1  0.16320000  0.62080000  0.68280000  1.0 0.6175204101
C  C108  1  0.08510000  0.10150000  0.70780000  1.0 0.5408004108
C  C109  1  0.47420000  0.51470000  0.36430000  1.0 0.0575896273
C  C110  1  0.04760000  0.75670000  0.15870000  1.0 -0.0140817148
C  C111  1  0.40000000  0.34760000  0.33800000  1.0 -0.4298763392
C  C112  1  0.88000000  0.62500000  0.09400000  1.0 -0.2803901352
C  C113  1  0.53100000  0.41300000  0.28900000  1.0 -0.0564971161
C  C114  1  0.93300000  0.76200000  0.05830000  1.0 -0.0305958614
C  C115  1  0.53800000  0.57500000  0.30570000  1.0 -0.0393604418
C  C116  1  0.51900000  0.43000000  0.20510000  1.0 -0.227711272
C  C117  1  0.56900000  0.46600000  0.35000000  1.0 -0.098586422
C  C118  1  0.91900000  0.70100000  0.07000000  1.0 0.020316727
C  C119  1  0.08050000  0.83640000  0.10670000  1.0 0.0478962193
C  C120  1  0.96800000  0.75500000  0.96570000  1.0 -0.2673857478
N  N1  1  0.04600000  0.29020000  0.90300000  1.0 0.020316727
N  N2  1  0.51810000  0.55930000  0.65410000  1.0 0.0677379223
N  N3  1  0.45890000  0.50880000  0.71330000  1.0 0.0575896273
N  N4  1  0.01080000  0.23510000  0.95160000  1.0 -0.0305958614
N  N5  1  0.95400000  0.70980000  0.09700000  1.0 0.020316727
N  N6  1  0.48190000  0.44070000  0.34590000  1.0 0.0677379223
N  N7  1  0.54110000  0.49120000  0.28670000  1.0 0.0575896273
N  N8  1  0.98920000  0.76490000  0.04840000  1.0 -0.0305958614
O  O1  1  0.61240000  0.03740000  0.65075000  1.0 -0.7802573559
O  O2  1  0.50090000  0.15490000  0.51461000  1.0 -0.7701095757
O  O3  1  0.57570000  0.01860000  0.46050000  1.0 -0.5487119374
O  O4  1  0.57200000  0.19720000  0.69030000  1.0 -0.5074042497
O  O5  1  0.59510000  0.10580000  0.38530000  1.0 -0.4784624395
O  O6  1  0.29710000  0.06730000  0.36370000  1.0 -0.5074042497
O  O7  1  0.27440000  0.79810000  0.39820000  1.0 -0.5322319207
O  O8  1  0.45520000  0.23700000  0.67260000  1.0 -0.5322319207
O  O9  1  0.54430000  0.26380000  0.41500000  1.0 -0.5322319207
O  O10  1  0.17660000  0.84310000  0.33820000  1.0 -0.5322319207
O  O11  1  0.34770000  0.20030000  0.47480000  1.0 -0.5629411159
O  O12  1  0.43800000  0.09760000  0.25920000  1.0 -0.4914762792
O  O13  1  0.29660000  0.96660000  0.18000000  1.0 -0.5322319207
O  O14  1  0.60760000  0.36040000  0.55260000  1.0 -0.5487119374
O  O15  1  0.46620000  0.39590000  0.62010000  1.0 -0.2993362886
O  O16  1  0.89670000  0.15170000  0.82070000  1.0 -0.3618260441
O  O17  1  0.73820000  0.21590000  0.79650000  1.0 -0.1197158118
O  O18  1  0.38760000  0.96260000  0.34925000  1.0 -0.7802573559
O  O19  1  0.49910000  0.84510000  0.48539000  1.0 -0.7701095757
O  O20  1  0.42430000  0.98140000  0.53950000  1.0 -0.5487119374
O  O21  1  0.42800000  0.80280000  0.30970000  1.0 -0.5074042497
O  O22  1  0.40490000  0.89420000  0.61470000  1.0 -0.4784624395
O  O23  1  0.70290000  0.93270000  0.63630000  1.0 -0.5074042497
O  O24  1  0.72560000  0.20190000  0.60180000  1.0 -0.5322319207
O  O25  1  0.54480000  0.76300000  0.32740000  1.0 -0.5322319207
O  O26  1  0.45570000  0.73620000  0.58500000  1.0 -0.5322319207
O  O27  1  0.82340000  0.15690000  0.66180000  1.0 -0.5322319207
O  O28  1  0.65230000  0.79970000  0.52520000  1.0 -0.5629411159
O  O29  1  0.56200000  0.90240000  0.74080000  1.0 -0.4914762792
O  O30  1  0.70340000  0.03340000  0.82000000  1.0 -0.5322319207
O  O31  1  0.39240000  0.63960000  0.44740000  1.0 -0.5487119374
O  O32  1  0.53380000  0.60410000  0.37990000  1.0 -0.2993362886
O  O33  1  0.10330000  0.84830000  0.17930000  1.0 -0.3618260441
O  O34  1  0.26180000  0.78410000  0.20350000  1.0 -0.1197158118
F  F1  1  0.83090000  0.14710000  0.24530000  1.0 -0.184381437
F  F2  1  0.32390000  0.28220000  0.89950000  1.0 -0.2478145254
F  F3  1  0.93450000  0.83770000  0.25620000  1.0 -0.1997840869
F  F4  1  0.76350000  0.52360000  0.27590000  1.0 -0.1997840869
F  F5  1  0.83480000  0.89150000  0.26220000  1.0 -0.1494362297
F  F6  1  0.26350000  0.16270000  0.92960000  1.0 -0.2993362886
F  F7  1  0.92790000  0.09360000  0.25580000  1.0 -0.1494362297
F  F8  1  0.59280000  0.29420000  0.03500000  1.0 -0.1934566316
F  F9  1  0.40160000  0.28430000  0.01160000  1.0 -0.2803901352
F  F10  1  0.82700000  0.64780000  0.25990000  1.0 -0.2401544717
F  F11  1  0.85300000  0.41810000  0.26320000  1.0 -0.1997840869
F  F12  1  0.64070000  0.29490000  0.15230000  1.0 -0.1997840869
F  F13  1  0.96750000  0.21630000  0.33070000  1.0 -0.1634108578
F  F14  1  0.77430000  0.28690000  0.27140000  1.0 -0.1997840869
F  F15  1  0.92930000  0.38740000  0.34900000  1.0 -0.2182374713
F  F16  1  0.64870000  0.20900000  0.04830000  1.0 -0.184381437
F  F17  1  0.78920000  0.64270000  0.36960000  1.0 -0.1997840869
F  F18  1  0.87110000  0.85610000  0.34670000  1.0 -0.1634108578
F  F19  1  0.16910000  0.85290000  0.75470000  1.0 -0.184381437
F  F20  1  0.67610000  0.71780000  0.10050000  1.0 -0.2478145254
F  F21  1  0.06550000  0.16230000  0.74380000  1.0 -0.1997840869
F  F22  1  0.23650000  0.47640000  0.72410000  1.0 -0.1997840869
F  F23  1  0.16520000  0.10850000  0.73780000  1.0 -0.1494362297
F  F24  1  0.73650000  0.83730000  0.07040000  1.0 -0.2993362886
F  F25  1  0.07210000  0.90640000  0.74420000  1.0 -0.1494362297
F  F26  1  0.40720000  0.70580000  0.96500000  1.0 -0.1934566316
F  F27  1  0.59840000  0.71570000  0.98840000  1.0 -0.2861017403
F  F28  1  0.17300000  0.35220000  0.74010000  1.0 -0.2401544717
F  F29  1  0.14700000  0.58190000  0.73680000  1.0 -0.1997840869
F  F30  1  0.35930000  0.70510000  0.84770000  1.0 -0.1997840869
F  F31  1  0.03250000  0.78370000  0.66930000  1.0 -0.1634108578
F  F32  1  0.22570000  0.71310000  0.72860000  1.0 -0.1997840869
F  F33  1  0.07070000  0.61260000  0.65100000  1.0 -0.2182374713
F  F34  1  0.35130000  0.79100000  0.95170000  1.0 -0.184381437
F  F35  1  0.21080000  0.35730000  0.63040000  1.0 -0.1997840869
F  F36  1  0.12890000  0.14390000  0.65330000  1.0 -0.1634108578
