# DDEC6 charges by PACMAN v1.1 (https://github.com/mtap-research/PACMAN-charge/)
data_XEDDET_ASR_pacman
_symmetry_space_group_name_H-M   'P 1'
_cell_length_a   15.75000000
_cell_length_b   17.85700000
_cell_length_c   17.97200000
_cell_angle_alpha   69.03900000
_cell_angle_beta   66.81100000
_cell_angle_gamma   64.87000000
_symmetry_Int_Tables_number   1
_chemical_formula_structural   Mn4H18C49(O8F9)2
_chemical_formula_sum   'Mn8 H36 C98 O32 F36'
_cell_volume   4094.74384972
_cell_formula_units_Z   2
loop_
 _symmetry_equiv_pos_site_id
 _symmetry_equiv_pos_as_xyz
  1  'x, y, z'
loop_
 _atom_site_type_symbol
 _atom_site_label
 _atom_site_symmetry_multiplicity
 _atom_site_fract_x
 _atom_site_fract_y
 _atom_site_fract_z
 _atom_site_occupancy
 _atom_site_charge
Mn  Mn1  1  0.49859000  0.58242000  0.91864000  1.0 1.1041034679
Mn  Mn2  1  0.32124000  0.63117000  0.12432000  1.0 0.9540337543
Mn  Mn3  1  0.74586000  0.24973000  0.05510000  1.0 0.9349873285
Mn  Mn4  1  0.74060000  0.54680000  0.75972000  1.0 0.9201546531
Mn  Mn5  1  0.50141000  0.41758000  0.08136000  1.0 1.1041034679
Mn  Mn6  1  0.67876000  0.36883000  0.87568000  1.0 0.9540337543
Mn  Mn7  1  0.25414000  0.75027000  0.94490000  1.0 0.9349873285
Mn  Mn8  1  0.25940000  0.45320000  0.24028000  1.0 0.9201546531
H  H1  1  0.73262000  0.49960000  0.00313000  1.0 0.1212256245
H  H2  1  0.56928000  0.65541000  0.15405000  1.0 0.1294114809
H  H3  1  0.87344000  0.50294000  0.01449000  1.0 0.1145664375
H  H4  1  0.03269000  0.71125000  0.00506000  1.0 0.1212256245
H  H5  1  0.89868000  0.69430000  0.99697000  1.0 0.1212256245
H  H6  1  0.05817000  0.50492000  0.19419000  1.0 0.1145664375
H  H7  1  0.72338000  0.01606000  0.04757000  1.0 0.1212256245
H  H8  1  0.70608000  0.90486000  0.02324000  1.0 0.1212256245
H  H9  1  0.66152000  0.16622000  0.83475000  1.0 0.1294114809
H  H10  1  0.52012000  0.45194000  0.28970000  1.0 0.1212256245
H  H11  1  0.53069000  0.47312000  0.40538000  1.0 0.1212256245
H  H12  1  0.78778000  0.27532000  0.26362000  1.0 0.1212256245
H  H13  1  0.64557000  0.32867000  0.67753000  1.0 0.1294114809
H  H14  1  0.73365000  0.52641000  0.52502000  1.0 0.1294114809
H  H15  1  0.71359000  0.50363000  0.41462000  1.0 0.1212256245
H  H16  1  0.51680000  0.79660000  0.94483000  1.0 0.1212256245
H  H17  1  0.80058000  0.72935000  0.81361000  1.0 0.1212256245
H  H18  1  0.53084000  0.91173000  0.96482000  1.0 0.1212256245
H  H19  1  0.26738000  0.50040000  0.99687000  1.0 0.1212256245
H  H20  1  0.43072000  0.34459000  0.84595000  1.0 0.1294114809
H  H21  1  0.12656000  0.49706000  0.98551000  1.0 0.1145664375
H  H22  1  0.96731000  0.28875000  0.99494000  1.0 0.1212256245
H  H23  1  0.10132000  0.30570000  0.00303000  1.0 0.1212256245
H  H24  1  0.94183000  0.49508000  0.80581000  1.0 0.1145664375
H  H25  1  0.27662000  0.98394000  0.95243000  1.0 0.1212256245
H  H26  1  0.29392000  0.09514000  0.97676000  1.0 0.1212256245
H  H27  1  0.33848000  0.83378000  0.16525000  1.0 0.1294114809
H  H28  1  0.47988000  0.54806000  0.71030000  1.0 0.1212256245
H  H29  1  0.46931000  0.52688000  0.59462000  1.0 0.1212256245
H  H30  1  0.21222000  0.72468000  0.73638000  1.0 0.1212256245
H  H31  1  0.35443000  0.67133000  0.32247000  1.0 0.1294114809
H  H32  1  0.26635000  0.47359000  0.47498000  1.0 0.1294114809
H  H33  1  0.28641000  0.49637000  0.58538000  1.0 0.1212256245
H  H34  1  0.48320000  0.20340000  0.05517000  1.0 0.1212256245
H  H35  1  0.19942000  0.27065000  0.18639000  1.0 0.1212256245
H  H36  1  0.46916000  0.08827000  0.03518000  1.0 0.1212256245
C  C1  1  0.80520000  0.58470000  0.09010000  1.0 0.0535282755
C  C2  1  0.54520000  0.57440000  0.07520000  1.0 0.5986221056
C  C3  1  0.72710000  0.53180000  0.03670000  1.0 -0.0880223204
C  C4  1  0.63930000  0.57440000  0.07850000  1.0 -0.0061800238
C  C5  1  0.63100000  0.62420000  0.12600000  1.0 -0.0994911471
C  C6  1  0.81220000  0.53470000  0.04260000  1.0 -0.1364243655
C  C7  1  0.71280000  0.43600000  0.68580000  1.0 0.571848772
C  C8  1  0.71340000  0.62820000  0.13260000  1.0 -0.1497887191
C  C9  1  0.05870000  0.60980000  0.10040000  1.0 0.026047125
C  C10  1  0.01090000  0.66650000  0.04130000  1.0 -0.1704048022
C  C11  1  0.93060000  0.65630000  0.03650000  1.0 -0.1223264732
C  C12  1  0.89810000  0.58950000  0.09070000  1.0 0.0535282755
C  C13  1  0.94590000  0.53270000  0.14980000  1.0 -0.1497887191
C  C14  1  0.02620000  0.54290000  0.15470000  1.0 -0.2406877097
C  C15  1  0.69420000  0.10220000  0.94360000  1.0 -0.0061800238
C  C16  1  0.70750000  0.02390000  0.00000000  1.0 -0.0880223204
C  C17  1  0.69720000  0.95720000  0.98550000  1.0 -0.1298388498
C  C18  1  0.67340000  0.96890000  0.91440000  1.0 0.0431373761
C  C19  1  0.66010000  0.04720000  0.85800000  1.0 -0.1298388498
C  C20  1  0.67050000  0.11380000  0.87250000  1.0 -0.0994911471
C  C21  1  0.65290000  0.36150000  0.26520000  1.0 -0.002363384
C  C22  1  0.57590000  0.42080000  0.30770000  1.0 -0.0880223204
C  C23  1  0.58220000  0.43350000  0.37700000  1.0 -0.1298388498
C  C24  1  0.66560000  0.38690000  0.40380000  1.0 0.0627491321
C  C25  1  0.74260000  0.32770000  0.36130000  1.0 -0.1704048022
C  C26  1  0.73630000  0.31500000  0.29200000  1.0 -0.0994911471
C  C27  1  0.64410000  0.34960000  0.18900000  1.0 0.5786659738
C  C28  1  0.66760000  0.40250000  0.47990000  1.0 0.0431373761
C  C29  1  0.64720000  0.35010000  0.55870000  1.0 -0.1298388498
C  C30  1  0.65920000  0.36370000  0.62480000  1.0 -0.111050934
C  C31  1  0.69160000  0.42980000  0.61220000  1.0 -0.002363384
C  C32  1  0.71200000  0.48220000  0.53350000  1.0 -0.0880223204
C  C33  1  0.70000000  0.46860000  0.46730000  1.0 -0.1223264732
C  C34  1  0.57650000  0.80620000  0.92250000  1.0 -0.0880223204
C  C35  1  0.65730000  0.75160000  0.87720000  1.0 -0.002363384
C  C36  1  0.74650000  0.76590000  0.84390000  1.0 -0.111050934
C  C37  1  0.75490000  0.83490000  0.85590000  1.0 -0.1364243655
C  C38  1  0.67410000  0.88950000  0.90120000  1.0 0.0431373761
C  C39  1  0.58490000  0.87520000  0.93450000  1.0 -0.1364243655
C  C40  1  0.64550000  0.67990000  0.86000000  1.0 0.5786659738
C  C41  1  0.70660000  0.68440000  0.18030000  1.0 0.6408105712
C  C42  1  0.85220000  0.84740000  0.82970000  1.0 0.6334461193
C  C43  1  0.94390000  0.44590000  0.18780000  1.0 0.6408105712
C  C44  1  0.58700000  0.29470000  0.57930000  1.0 0.6560397367
C  C45  1  0.82580000  0.27320000  0.39270000  1.0 0.5986221056
C  C46  1  0.61000000  0.05900000  0.79420000  1.0 0.6408105712
C  C47  1  0.71450000  0.17540000  0.95060000  1.0 0.5786659738
C  C48  1  0.13630000  0.64550000  0.08450000  1.0 0.2827857356
C  C49  1  0.13740000  0.59900000  0.13670000  1.0 0.2725579958
C  C50  1  0.19480000  0.41530000  0.90990000  1.0 0.0535282755
C  C51  1  0.45480000  0.42560000  0.92480000  1.0 0.5986221056
C  C52  1  0.27290000  0.46820000  0.96330000  1.0 -0.0880223204
C  C53  1  0.36070000  0.42560000  0.92150000  1.0 -0.0061800238
C  C54  1  0.36900000  0.37580000  0.87400000  1.0 -0.0994911471
C  C55  1  0.18780000  0.46530000  0.95740000  1.0 -0.1364243655
C  C56  1  0.28720000  0.56400000  0.31420000  1.0 0.571848772
C  C57  1  0.28660000  0.37180000  0.86740000  1.0 -0.1497887191
C  C58  1  0.94130000  0.39020000  0.89960000  1.0 0.026047125
C  C59  1  0.98910000  0.33350000  0.95870000  1.0 -0.1704048022
C  C60  1  0.06940000  0.34370000  0.96350000  1.0 -0.1223264732
C  C61  1  0.10190000  0.41050000  0.90930000  1.0 0.0535282755
C  C62  1  0.05410000  0.46730000  0.85020000  1.0 -0.1497887191
C  C63  1  0.97380000  0.45710000  0.84530000  1.0 -0.2406877097
C  C64  1  0.30580000  0.89780000  0.05640000  1.0 -0.0061800238
C  C65  1  0.29250000  0.97610000  0.00000000  1.0 -0.0880223204
C  C66  1  0.30280000  0.04280000  0.01450000  1.0 -0.1298388498
C  C67  1  0.32660000  0.03110000  0.08560000  1.0 0.0431373761
C  C68  1  0.33990000  0.95280000  0.14200000  1.0 -0.1298388498
C  C69  1  0.32950000  0.88620000  0.12750000  1.0 -0.0994911471
C  C70  1  0.34710000  0.63850000  0.73480000  1.0 -0.002363384
C  C71  1  0.42410000  0.57920000  0.69230000  1.0 -0.0880223204
C  C72  1  0.41780000  0.56650000  0.62300000  1.0 -0.1298388498
C  C73  1  0.33440000  0.61310000  0.59620000  1.0 0.0627491321
C  C74  1  0.25740000  0.67230000  0.63870000  1.0 -0.1704048022
C  C75  1  0.26370000  0.68500000  0.70800000  1.0 -0.0994911471
C  C76  1  0.35590000  0.65040000  0.81100000  1.0 0.5786659738
C  C77  1  0.33240000  0.59750000  0.52010000  1.0 0.0431373761
C  C78  1  0.35280000  0.64990000  0.44130000  1.0 -0.1298388498
C  C79  1  0.34080000  0.63630000  0.37520000  1.0 -0.111050934
C  C80  1  0.30840000  0.57020000  0.38780000  1.0 -0.002363384
C  C81  1  0.28800000  0.51780000  0.46650000  1.0 -0.0880223204
C  C82  1  0.30000000  0.53140000  0.53270000  1.0 -0.1223264732
C  C83  1  0.42350000  0.19380000  0.07750000  1.0 -0.0880223204
C  C84  1  0.34270000  0.24840000  0.12280000  1.0 -0.002363384
C  C85  1  0.25350000  0.23410000  0.15610000  1.0 -0.111050934
C  C86  1  0.24510000  0.16510000  0.14410000  1.0 -0.1364243655
C  C87  1  0.32590000  0.11050000  0.09880000  1.0 0.0431373761
C  C88  1  0.41510000  0.12480000  0.06550000  1.0 -0.1364243655
C  C89  1  0.35450000  0.32010000  0.14000000  1.0 0.5786659738
C  C90  1  0.29340000  0.31560000  0.81970000  1.0 0.6408105712
C  C91  1  0.14780000  0.15260000  0.17030000  1.0 0.6334461193
C  C92  1  0.05610000  0.55410000  0.81220000  1.0 0.6408105712
C  C93  1  0.41300000  0.70530000  0.42070000  1.0 0.6560397367
C  C94  1  0.17420000  0.72680000  0.60730000  1.0 0.5986221056
C  C95  1  0.39000000  0.94100000  0.20580000  1.0 0.6408105712
C  C96  1  0.28550000  0.82460000  0.04940000  1.0 0.5786659738
C  C97  1  0.86370000  0.35450000  0.91550000  1.0 0.2827857356
C  C98  1  0.86260000  0.40100000  0.86330000  1.0 0.2725579958
O  O1  1  0.36570000  0.64930000  0.99250000  1.0 -0.752098896
O  O2  1  0.62890000  0.50550000  0.85270000  1.0 -0.7683818419
O  O3  1  0.55330000  0.52830000  0.03020000  1.0 -0.5440665264
O  O4  1  0.46760000  0.61920000  0.11280000  1.0 -0.448804744
O  O5  1  0.56290000  0.37990000  0.17990000  1.0 -0.4899163623
O  O6  1  0.56160000  0.67820000  0.88420000  1.0 -0.5092648644
O  O7  1  0.71460000  0.38080000  0.74600000  1.0 -0.4720673938
O  O8  1  0.72400000  0.63000000  0.82360000  1.0 -0.5579753299
O  O9  1  0.72320000  0.30420000  0.14320000  1.0 -0.5664050062
O  O10  1  0.72230000  0.16290000  0.02240000  1.0 -0.5440665264
O  O11  1  0.72090000  0.50940000  0.66940000  1.0 -0.5531791825
O  O12  1  0.72160000  0.23540000  0.89350000  1.0 -0.4899163623
O  O13  1  0.18890000  0.59890000  0.13620000  1.0 0.0627491321
O  O14  1  0.15540000  0.70990000  0.03500000  1.0 -0.2697778423
O  O15  1  0.15830000  0.54640000  0.20050000  1.0 -0.2014243887
O  O16  1  0.18880000  0.64150000  0.09300000  1.0 0.0535282755
O  O17  1  0.63430000  0.35070000  0.00750000  1.0 -0.752098896
O  O18  1  0.37110000  0.49450000  0.14730000  1.0 -0.7683818419
O  O19  1  0.44670000  0.47170000  0.96980000  1.0 -0.5440665264
O  O20  1  0.53240000  0.38080000  0.88720000  1.0 -0.448804744
O  O21  1  0.43710000  0.62010000  0.82010000  1.0 -0.4899163623
O  O22  1  0.43840000  0.32180000  0.11580000  1.0 -0.5092648644
O  O23  1  0.28540000  0.61920000  0.25400000  1.0 -0.4720673938
O  O24  1  0.27600000  0.37000000  0.17640000  1.0 -0.5579753299
O  O25  1  0.27680000  0.69580000  0.85680000  1.0 -0.5664050062
O  O26  1  0.27770000  0.83710000  0.97760000  1.0 -0.5440665264
O  O27  1  0.27910000  0.49060000  0.33060000  1.0 -0.5531791825
O  O28  1  0.27840000  0.76460000  0.10650000  1.0 -0.4899163623
O  O29  1  0.81110000  0.40110000  0.86380000  1.0 0.0627491321
O  O30  1  0.84460000  0.29010000  0.96500000  1.0 -0.2697778423
O  O31  1  0.84170000  0.45360000  0.79950000  1.0 -0.2014243887
O  O32  1  0.81120000  0.35850000  0.90700000  1.0 0.0535282755
F  F1  1  0.75490000  0.64760000  0.23510000  1.0 -0.189243317
F  F2  1  0.61450000  0.71840000  0.22240000  1.0 -0.2014243887
F  F3  1  0.73740000  0.75110000  0.13340000  1.0 -0.2014243887
F  F4  1  0.87360000  0.31720000  0.39730000  1.0 -0.181602119
F  F5  1  0.84860000  0.92390000  0.77600000  1.0 -0.181602119
F  F6  1  0.90010000  0.23080000  0.33810000  1.0 -0.181602119
F  F7  1  0.90740000  0.80680000  0.76530000  1.0 -0.181602119
F  F8  1  0.63890000  0.24020000  0.52750000  1.0 -0.219222407
F  F9  1  0.81660000  0.21750000  0.46460000  1.0 -0.189243317
F  F10  1  0.55060000  0.26350000  0.66230000  1.0 -0.2014243887
F  F11  1  0.49870000  0.34500000  0.55960000  1.0 -0.219222407
F  F12  1  0.67700000  0.01500000  0.73290000  1.0 -0.2259181817
F  F13  1  0.59100000  0.14260000  0.75060000  1.0 -0.1704048022
F  F14  1  0.90200000  0.82500000  0.88740000  1.0 -0.2406877097
F  F15  1  0.51300000  0.06400000  0.83820000  1.0 -0.219222407
F  F16  1  0.85200000  0.45890000  0.23950000  1.0 -0.2076584279
F  F17  1  0.95750000  0.39120000  0.14500000  1.0 -0.2076584279
F  F18  1  0.00230000  0.39900000  0.23960000  1.0 -0.2076584279
F  F19  1  0.24510000  0.35240000  0.76490000  1.0 -0.189243317
F  F20  1  0.38550000  0.28160000  0.77760000  1.0 -0.2014243887
F  F21  1  0.26260000  0.24890000  0.86660000  1.0 -0.2014243887
F  F22  1  0.12640000  0.68280000  0.60270000  1.0 -0.181602119
F  F23  1  0.15140000  0.07610000  0.22400000  1.0 -0.181602119
F  F24  1  0.09990000  0.76920000  0.66190000  1.0 -0.181602119
F  F25  1  0.09260000  0.19320000  0.23470000  1.0 -0.181602119
F  F26  1  0.36110000  0.75980000  0.47250000  1.0 -0.219222407
F  F27  1  0.18340000  0.78250000  0.53540000  1.0 -0.189243317
F  F28  1  0.44940000  0.73650000  0.33770000  1.0 -0.2014243887
F  F29  1  0.50130000  0.65500000  0.44040000  1.0 -0.219222407
F  F30  1  0.32300000  0.98500000  0.26710000  1.0 -0.2259181817
F  F31  1  0.40900000  0.85740000  0.24940000  1.0 -0.1704048022
F  F32  1  0.09800000  0.17500000  0.11260000  1.0 -0.2406877097
F  F33  1  0.48700000  0.93600000  0.16180000  1.0 -0.219222407
F  F34  1  0.14800000  0.54110000  0.76050000  1.0 -0.2076584279
F  F35  1  0.04250000  0.60880000  0.85500000  1.0 -0.2076584279
F  F36  1  0.99770000  0.60100000  0.76040000  1.0 -0.2076584279
