# DDEC6 charges by PACMAN v1.1 (https://github.com/mtap-research/PACMAN-charge/)
data_XEDDOD_ASR_pacman
_symmetry_space_group_name_H-M   'P 1'
_cell_length_a   15.80250000
_cell_length_b   16.71740000
_cell_length_c   17.82410000
_cell_angle_alpha   107.12600000
_cell_angle_beta   99.54700000
_cell_angle_gamma   114.73400000
_symmetry_Int_Tables_number   1
_chemical_formula_structural   Mn4H15C49(O2F3)7
_chemical_formula_sum   'Mn8 H30 C98 O28 F42'
_cell_volume   3853.79443176
_cell_formula_units_Z   2
loop_
 _symmetry_equiv_pos_site_id
 _symmetry_equiv_pos_as_xyz
  1  'x, y, z'
loop_
 _atom_site_type_symbol
 _atom_site_label
 _atom_site_symmetry_multiplicity
 _atom_site_fract_x
 _atom_site_fract_y
 _atom_site_fract_z
 _atom_site_occupancy
 _atom_site_charge
Mn  Mn1  1  0.57636000  0.10644000  0.08017000  1.0 1.1547557272
Mn  Mn2  1  0.53873000  0.88486000  0.11763000  1.0 1.1110542572
Mn  Mn3  1  0.51969000  0.72606000  0.93065000  1.0 1.0911746181
Mn  Mn4  1  0.75229000  0.08949000  0.23508000  1.0 1.0527559078
Mn  Mn5  1  0.42364000  0.89356000  0.91983000  1.0 1.1562446512
Mn  Mn6  1  0.46127000  0.11514000  0.88237000  1.0 1.1110542572
Mn  Mn7  1  0.48031000  0.27394000  0.06935000  1.0 1.0911746181
Mn  Mn8  1  0.24771000  0.91051000  0.76492000  1.0 1.0527559078
H  H1  1  0.27621000  0.00503000  0.00986000  1.0 0.1294457348
H  H2  1  0.13029000  0.00222000  0.01891000  1.0 0.1206412136
H  H3  1  0.27387000  0.88591000  0.17571000  1.0 0.1206412136
H  H4  1  0.60213000  0.74763000  0.69979000  1.0 0.1294457348
H  H5  1  0.50019000  0.94345000  0.62267000  1.0 0.1206412136
H  H6  1  0.46816000  0.90701000  0.73438000  1.0 0.1294457348
H  H7  1  0.74397000  0.04367000  0.46828000  1.0 0.1294457348
H  H8  1  0.72001000  0.00415000  0.58027000  1.0 0.1206412136
H  H9  1  0.47406000  0.82157000  0.32152000  1.0 0.1294457348
H  H10  1  0.99916000  0.26771000  0.18755000  1.0 0.1206412136
H  H11  1  0.95033000  0.42001000  0.01864000  1.0 0.1101633336
H  H12  1  0.81627000  0.30986000  0.03873000  1.0 0.1206412136
H  H13  1  0.89552000  0.03332000  0.18254000  1.0 0.1101633336
H  H14  1  0.31387000  0.70283000  0.14107000  1.0 0.1294457348
H  H15  1  0.25675000  0.47693000  0.93851000  1.0 0.1206412136
H  H16  1  0.72379000  0.99497000  0.99014000  1.0 0.1294457348
H  H17  1  0.86971000  0.99778000  0.98109000  1.0 0.1206412136
H  H18  1  0.72613000  0.11409000  0.82429000  1.0 0.1206412136
H  H19  1  0.39787000  0.25237000  0.30021000  1.0 0.1294457348
H  H20  1  0.49981000  0.05655000  0.37733000  1.0 0.1206412136
H  H21  1  0.53184000  0.09299000  0.26562000  1.0 0.1294457348
H  H22  1  0.25603000  0.95633000  0.53172000  1.0 0.1294457348
H  H23  1  0.27999000  0.99585000  0.41973000  1.0 0.1206412136
H  H24  1  0.52594000  0.17843000  0.67848000  1.0 0.1294457348
H  H25  1  0.00084000  0.73229000  0.81245000  1.0 0.1206412136
H  H26  1  0.04967000  0.57999000  0.98136000  1.0 0.1101633336
H  H27  1  0.18373000  0.69014000  0.96127000  1.0 0.1206412136
H  H28  1  0.10448000  0.96668000  0.81746000  1.0 0.1101633336
H  H29  1  0.68613000  0.29717000  0.85893000  1.0 0.1294457348
H  H30  1  0.74325000  0.52307000  0.06149000  1.0 0.1206412136
C  C1  1  0.28950000  0.94580000  0.09190000  1.0 -0.0103765203
C  C2  1  0.24650000  0.98060000  0.04490000  1.0 -0.0799522083
C  C3  1  0.15910000  0.97890000  0.05030000  1.0 -0.1193294434
C  C4  1  0.11470000  0.94240000  0.10270000  1.0 0.0756431676
C  C5  1  0.15770000  0.90750000  0.14970000  1.0 -0.2121946407
C  C6  1  0.24510000  0.90920000  0.14430000  1.0 -0.0799522083
C  C7  1  0.38000000  0.94070000  0.08190000  1.0 0.5872264859
C  C8  1  0.71960000  0.87730000  0.08740000  1.0 0.6154240228
C  C9  1  0.80700000  0.20690000  0.12830000  1.0 0.5872264859
C  C10  1  0.50190000  0.79390000  0.79510000  1.0 0.5872264859
C  C11  1  0.53200000  0.82370000  0.72820000  1.0 -0.0225397192
C  C12  1  0.58170000  0.78690000  0.68430000  1.0 -0.0987359055
C  C13  1  0.60090000  0.80870000  0.61740000  1.0 -0.1591418937
C  C14  1  0.57040000  0.86740000  0.59430000  1.0 0.0595020435
C  C15  1  0.52060000  0.90420000  0.63810000  1.0 -0.1193294434
C  C16  1  0.50140000  0.88240000  0.70510000  1.0 -0.0799522083
C  C17  1  0.61140000  0.93650000  0.38380000  1.0 -0.0103765203
C  C18  1  0.68510000  0.99120000  0.46130000  1.0 -0.087443732
C  C19  1  0.67070000  0.96760000  0.52840000  1.0 -0.1193294434
C  C20  1  0.58270000  0.88920000  0.51800000  1.0 0.0595020435
C  C21  1  0.50900000  0.83450000  0.44050000  1.0 -0.1431662284
C  C22  1  0.52340000  0.85820000  0.37340000  1.0 -0.0987359055
C  C23  1  0.89440000  0.27790000  0.11510000  1.0 0.0002416486
C  C24  1  0.98940000  0.29820000  0.15370000  1.0 -0.0987359055
C  C25  1  0.06970000  0.36420000  0.14170000  1.0 -0.1591418937
C  C26  1  0.05510000  0.40990000  0.09110000  1.0 0.0417912702
C  C27  1  0.96010000  0.38950000  0.05250000  1.0 -0.1503887095
C  C28  1  0.87980000  0.32350000  0.06450000  1.0 -0.087443732
C  C29  1  0.01340000  0.93360000  0.09880000  1.0 0.0523202175
C  C30  1  0.99970000  0.00390000  0.15100000  1.0 -0.173981487
C  C31  1  0.90470000  0.98630000  0.14760000  1.0 -0.087443732
C  C32  1  0.82350000  0.89830000  0.09200000  1.0 -0.0333707549
C  C33  1  0.83730000  0.82800000  0.03980000  1.0 0.0523202175
C  C34  1  0.93220000  0.84560000  0.04320000  1.0 -0.230448372
C  C35  1  0.62620000  0.95910000  0.30910000  1.0 0.5872264859
C  C36  1  0.39040000  0.66300000  0.02310000  1.0 0.5872264859
C  C37  1  0.27580000  0.63760000  0.10620000  1.0 -0.087443732
C  C38  1  0.19610000  0.57800000  0.12350000  1.0 -0.181695122
C  C39  1  0.13910000  0.48050000  0.07140000  1.0 0.0711765431
C  C40  1  0.16190000  0.44260000  0.00210000  1.0 -0.1591418937
C  C41  1  0.24150000  0.50230000  0.98490000  1.0 -0.1061246984
C  C42  1  0.29850000  0.59970000  0.03690000  1.0 0.0109089639
C  C43  1  0.65010000  0.76560000  0.57010000  1.0 0.6313761032
C  C44  1  0.16940000  0.38520000  0.18410000  1.0 0.6313761032
C  C45  1  0.08140000  0.09860000  0.20050000  1.0 0.6092490114
C  C46  1  0.40870000  0.75710000  0.42660000  1.0 0.6370222725
C  C47  1  0.16170000  0.62130000  0.18450000  1.0 0.648548559
C  C48  1  0.11800000  0.87420000  0.20780000  1.0 0.5872264859
C  C49  1  0.09600000  0.35910000  0.92580000  1.0 0.5327746428
C  C50  1  0.71050000  0.05420000  0.90810000  1.0 -0.0103765203
C  C51  1  0.75350000  0.01940000  0.95510000  1.0 -0.0799522083
C  C52  1  0.84090000  0.02110000  0.94970000  1.0 -0.1193294434
C  C53  1  0.88530000  0.05760000  0.89730000  1.0 0.0711765431
C  C54  1  0.84230000  0.09250000  0.85030000  1.0 -0.2121946407
C  C55  1  0.75490000  0.09080000  0.85570000  1.0 -0.0799522083
C  C56  1  0.62000000  0.05930000  0.91810000  1.0 0.5872264859
C  C57  1  0.28040000  0.12270000  0.91260000  1.0 0.6154240228
C  C58  1  0.19300000  0.79310000  0.87170000  1.0 0.5872264859
C  C59  1  0.49810000  0.20610000  0.20490000  1.0 0.5872264859
C  C60  1  0.46800000  0.17630000  0.27180000  1.0 -0.0225397192
C  C61  1  0.41830000  0.21310000  0.31570000  1.0 -0.0987359055
C  C62  1  0.39910000  0.19130000  0.38260000  1.0 -0.1591418937
C  C63  1  0.42960000  0.13260000  0.40570000  1.0 0.0595020435
C  C64  1  0.47940000  0.09580000  0.36190000  1.0 -0.1193294434
C  C65  1  0.49860000  0.11760000  0.29490000  1.0 -0.0799522083
C  C66  1  0.38860000  0.06350000  0.61620000  1.0 -0.0103765203
C  C67  1  0.31490000  0.00880000  0.53870000  1.0 -0.087443732
C  C68  1  0.32930000  0.03240000  0.47160000  1.0 -0.1193294434
C  C69  1  0.41730000  0.11080000  0.48200000  1.0 0.0595020435
C  C70  1  0.49100000  0.16550000  0.55950000  1.0 -0.1431662284
C  C71  1  0.47660000  0.14180000  0.62660000  1.0 -0.0987359055
C  C72  1  0.10560000  0.72210000  0.88490000  1.0 -0.0011282016
C  C73  1  0.01060000  0.70180000  0.84630000  1.0 -0.0987359055
C  C74  1  0.93030000  0.63580000  0.85830000  1.0 -0.1591418937
C  C75  1  0.94490000  0.59010000  0.90890000  1.0 0.0417912702
C  C76  1  0.03990000  0.61050000  0.94750000  1.0 -0.1503887095
C  C77  1  0.12020000  0.67650000  0.93550000  1.0 -0.087443732
C  C78  1  0.98660000  0.06640000  0.90120000  1.0 0.0523202175
C  C79  1  0.00030000  0.99610000  0.84900000  1.0 -0.181695122
C  C80  1  0.09530000  0.01370000  0.85240000  1.0 -0.087443732
C  C81  1  0.17650000  0.10170000  0.90800000  1.0 -0.0333707549
C  C82  1  0.16270000  0.17200000  0.96020000  1.0 0.0523202175
C  C83  1  0.06780000  0.15440000  0.95680000  1.0 -0.230448372
C  C84  1  0.37380000  0.04090000  0.69090000  1.0 0.5872264859
C  C85  1  0.60960000  0.33700000  0.97690000  1.0 0.5872264859
C  C86  1  0.72420000  0.36240000  0.89380000  1.0 -0.087443732
C  C87  1  0.80390000  0.42200000  0.87650000  1.0 -0.181695122
C  C88  1  0.86090000  0.51950000  0.92860000  1.0 0.0711765431
C  C89  1  0.83810000  0.55740000  0.99790000  1.0 -0.1591418937
C  C90  1  0.75850000  0.49770000  0.01510000  1.0 -0.1061246984
C  C91  1  0.70150000  0.40030000  0.96310000  1.0 0.0109089639
C  C92  1  0.34990000  0.23440000  0.42990000  1.0 0.6313761032
C  C93  1  0.83060000  0.61480000  0.81590000  1.0 0.6313761032
C  C94  1  0.91860000  0.90140000  0.79950000  1.0 0.6092490114
C  C95  1  0.59130000  0.24290000  0.57340000  1.0 0.6370222725
C  C96  1  0.83830000  0.37870000  0.81550000  1.0 0.648548559
C  C97  1  0.88200000  0.12580000  0.79220000  1.0 0.5872264859
C  C98  1  0.90400000  0.64090000  0.07420000  1.0 0.5327746428
O  O1  1  0.61220000  0.03780000  0.15240000  1.0 -0.8119173192
O  O2  1  0.49950000  0.15480000  0.01330000  1.0 -0.7799820744
O  O3  1  0.42400000  0.98130000  0.03940000  1.0 -0.5370600067
O  O4  1  0.43000000  0.80160000  0.81230000  1.0 -0.5331865194
O  O5  1  0.70280000  0.93230000  0.13890000  1.0 -0.5331865194
O  O6  1  0.40580000  0.89450000  0.11560000  1.0 -0.4961499416
O  O7  1  0.72610000  0.20240000  0.10220000  1.0 -0.5221441679
O  O8  1  0.82350000  0.15770000  0.16410000  1.0 -0.560194596
O  O9  1  0.65230000  0.79810000  0.02850000  1.0 -0.548792585
O  O10  1  0.45760000  0.73460000  0.08480000  1.0 -0.5221441679
O  O11  1  0.54630000  0.76010000  0.82990000  1.0 -0.548792585
O  O12  1  0.70100000  0.03120000  0.31990000  1.0 -0.5331865194
O  O13  1  0.56120000  0.90000000  0.24080000  1.0 -0.5099317871
O  O14  1  0.39210000  0.63770000  0.94940000  1.0 -0.548792585
O  O15  1  0.38780000  0.96220000  0.84760000  1.0 -0.8119173192
O  O16  1  0.50050000  0.84520000  0.98670000  1.0 -0.7799820744
O  O17  1  0.57600000  0.01870000  0.96060000  1.0 -0.5370600067
O  O18  1  0.57000000  0.19840000  0.18770000  1.0 -0.5331865194
O  O19  1  0.29720000  0.06770000  0.86110000  1.0 -0.5331865194
O  O20  1  0.59420000  0.10550000  0.88440000  1.0 -0.4961499416
O  O21  1  0.27390000  0.79760000  0.89780000  1.0 -0.5221441679
O  O22  1  0.17650000  0.84230000  0.83590000  1.0 -0.560194596
O  O23  1  0.34770000  0.20190000  0.97150000  1.0 -0.548792585
O  O24  1  0.54240000  0.26540000  0.91520000  1.0 -0.5221441679
O  O25  1  0.45370000  0.23990000  0.17010000  1.0 -0.548792585
O  O26  1  0.29900000  0.96880000  0.68010000  1.0 -0.5331865194
O  O27  1  0.43880000  0.10000000  0.75920000  1.0 -0.5099317871
O  O28  1  0.60790000  0.36230000  0.05060000  1.0 -0.548792585
F  F1  1  0.67620000  0.71400000  0.60290000  1.0 -0.2017048069
F  F2  1  0.06450000  0.16270000  0.24600000  1.0 -0.181695122
F  F3  1  0.23690000  0.47720000  0.22690000  1.0 -0.181695122
F  F4  1  0.16410000  0.10800000  0.24090000  1.0 -0.181695122
F  F5  1  0.17270000  0.35240000  0.24390000  1.0 -0.1863275362
F  F6  1  0.73670000  0.83280000  0.57060000  1.0 -0.2017048069
F  F7  1  0.40940000  0.70100000  0.46610000  1.0 -0.181695122
F  F8  1  0.59620000  0.70990000  0.49010000  1.0 -0.2121946407
F  F9  1  0.35940000  0.70030000  0.34810000  1.0 -0.2017048069
F  F10  1  0.14650000  0.58160000  0.23950000  1.0 -0.181695122
F  F11  1  0.22730000  0.71430000  0.23040000  1.0 -0.2017048069
F  F12  1  0.35050000  0.79220000  0.45660000  1.0 -0.2121946407
F  F13  1  0.21200000  0.35430000  0.13300000  1.0 -0.181695122
F  F14  1  0.07150000  0.61190000  0.15120000  1.0 -0.2393334799
F  F15  1  0.11800000  0.14530000  0.15000000  1.0 -0.181695122
F  F16  1  0.17100000  0.85340000  0.25640000  1.0 -0.181695122
F  F17  1  0.07180000  0.90810000  0.24480000  1.0 -0.1591418937
F  F18  1  0.03440000  0.78050000  0.16640000  1.0 0.0711765431
F  F19  1  0.01940000  0.28710000  0.93000000  1.0 -0.0442433834
F  F20  1  0.06200000  0.35800000  0.85100000  1.0 -0.1193294434
F  F21  1  0.15500000  0.31900000  0.91000000  1.0 -0.1503887095
F  F22  1  0.32380000  0.28600000  0.39710000  1.0 -0.2017048069
F  F23  1  0.93550000  0.83730000  0.75400000  1.0 -0.181695122
F  F24  1  0.76310000  0.52280000  0.77310000  1.0 -0.181695122
F  F25  1  0.83590000  0.89200000  0.75910000  1.0 -0.181695122
F  F26  1  0.82730000  0.64760000  0.75610000  1.0 -0.1863275362
F  F27  1  0.26330000  0.16720000  0.42940000  1.0 -0.2017048069
F  F28  1  0.59060000  0.29900000  0.53390000  1.0 -0.1863275362
F  F29  1  0.40380000  0.29010000  0.50990000  1.0 -0.2121946407
F  F30  1  0.64060000  0.29970000  0.65190000  1.0 -0.2017048069
F  F31  1  0.85350000  0.41840000  0.76050000  1.0 -0.181695122
F  F32  1  0.77270000  0.28570000  0.76960000  1.0 -0.2017048069
F  F33  1  0.64950000  0.20780000  0.54340000  1.0 -0.2121946407
F  F34  1  0.78800000  0.64570000  0.86700000  1.0 -0.181695122
F  F35  1  0.92850000  0.38810000  0.84880000  1.0 -0.2393334799
F  F36  1  0.88200000  0.85470000  0.85000000  1.0 -0.181695122
F  F37  1  0.82900000  0.14660000  0.74360000  1.0 -0.181695122
F  F38  1  0.92820000  0.09190000  0.75520000  1.0 -0.1591418937
F  F39  1  0.96560000  0.21950000  0.83360000  1.0 0.0711765431
F  F40  1  0.98060000  0.71290000  0.07000000  1.0 -0.0476118096
F  F41  1  0.93800000  0.64200000  0.14900000  1.0 -0.1193294434
F  F42  1  0.84500000  0.68100000  0.09000000  1.0 -0.1503887095
