# DDEC6 charges by PACMAN v1.1 (https://github.com/mtap-research/PACMAN-charge/)
data_XEDDUJ_FSR_pacman
_symmetry_space_group_name_H-M   'P 1'
_cell_length_a   15.81330000
_cell_length_b   16.84360000
_cell_length_c   17.82070000
_cell_angle_alpha   107.30200000
_cell_angle_beta   99.15000000
_cell_angle_gamma   114.93000000
_symmetry_Int_Tables_number   1
_chemical_formula_structural   Mn4H40C57N3O17F18
_chemical_formula_sum   'Mn8 H80 C114 N6 O34 F36'
_cell_volume   3881.54305824
_cell_formula_units_Z   2
loop_
 _symmetry_equiv_pos_site_id
 _symmetry_equiv_pos_as_xyz
  1  'x, y, z'
loop_
 _atom_site_type_symbol
 _atom_site_label
 _atom_site_symmetry_multiplicity
 _atom_site_fract_x
 _atom_site_fract_y
 _atom_site_fract_z
 _atom_site_occupancy
 _atom_site_charge
Mn  Mn1  1  0.07591000  0.60570000  0.07972000  1.0 1.0777253512
Mn  Mn2  1  0.03760000  0.38559000  0.11730000  1.0 1.0777253512
Mn  Mn3  1  0.02024000  0.22771000  0.93003000  1.0 1.0777253512
Mn  Mn4  1  0.25157000  0.58961000  0.23382000  1.0 0.9900119904
Mn  Mn5  1  0.92409000  0.39430000  0.92028000  1.0 1.0777253512
Mn  Mn6  1  0.96240000  0.61441000  0.88270000  1.0 1.0777253512
Mn  Mn7  1  0.97976000  0.77229000  0.06997000  1.0 1.0777253512
Mn  Mn8  1  0.74843000  0.41039000  0.76618000  1.0 0.9900119904
H  H1  1  0.77663000  0.50730000  0.01256000  1.0 0.128517789
H  H2  1  0.10217000  0.25079000  0.70031000  1.0 0.128517789
H  H3  1  0.77444000  0.38902000  0.17625000  1.0 0.128517789
H  H4  1  0.39714000  0.53556000  0.18327000  1.0 0.128517789
H  H5  1  0.49667000  0.76386000  0.18136000  1.0 0.1199338511
H  H6  1  0.63348000  0.50294000  0.01985000  1.0 0.1199338511
H  H7  1  0.00319000  0.44476000  0.62412000  1.0 0.1199338511
H  H8  1  0.97078000  0.40976000  0.73450000  1.0 0.1199338511
H  H9  1  0.80705000  0.19927000  0.14074000  1.0 0.128517789
H  H10  1  0.97920000  0.32229000  0.32009000  1.0 0.1199338511
H  H11  1  0.28291000  0.27210000  0.99849000  1.0 0.128517789
H  H12  1  0.31407000  0.80300000  0.03436000  1.0 0.128517789
H  H13  1  0.23749000  0.54507000  0.46756000  1.0 0.128517789
H  H14  1  0.43809000  0.29995000  0.00869000  1.0 0.1199338511
H  H15  1  0.21533000  0.50103000  0.57743000  1.0 0.128517789
H  H16  1  0.44695000  0.91792000  0.01795000  1.0 0.1199338511
H  H17  1  0.75535000  0.98052000  0.93719000  1.0 0.1077892523
H  H18  1  0.61635000  0.88224000  0.96007000  1.0 0.128517789
H  H19  1  0.45519000  0.76938000  0.31233000  1.0 0.1199338511
H  H20  1  0.53874000  0.68243000  0.44672000  1.0 0.1394362403
H  H21  1  0.54182000  0.76762000  0.51615000  1.0 0.0986009839
H  H22  1  0.63837000  0.77930000  0.49617000  1.0 0.0585229419
H  H23  1  0.67949000  0.88947000  0.47362000  1.0 0.0745151618
H  H24  1  0.60892000  0.91578000  0.42755000  1.0 0.1077892523
H  H25  1  0.65100000  0.85686000  0.37689000  1.0 0.0986009839
H  H26  1  0.14900000  0.53700000  0.11200000  1.0 0.3303470913
H  H27  1  0.36827000  0.64010000  0.41737000  1.0 0.1077892523
H  H28  1  0.42717000  0.67916000  0.51236000  1.0 0.1077892523
H  H29  1  0.51179000  0.78630000  0.55920000  1.0 0.0793035133
H  H30  1  0.53450000  0.70353000  0.55608000  1.0 0.0912489615
H  H31  1  0.58115000  0.71507000  0.37308000  1.0 0.1199338511
H  H32  1  0.64696000  0.80026000  0.46029000  1.0 0.04843808
H  H33  1  0.57129000  0.80744000  0.39801000  1.0 0.1199338511
H  H34  1  0.91231000  0.01090000  0.88487000  1.0 0.0986009839
H  H35  1  0.99598000  0.87769000  0.73847000  1.0 0.128517789
H  H36  1  0.08950000  0.92717000  0.81726000  1.0 0.128517789
H  H37  1  0.06280000  0.98955000  0.77894000  1.0 0.1394362403
H  H38  1  0.92210000  0.80257000  0.81549000  1.0 0.1457628015
H  H39  1  0.84696000  0.83997000  0.82294000  1.0 0.128517789
H  H40  1  0.92663000  0.86374000  0.90328000  1.0 0.1394362403
H  H41  1  0.22337000  0.49270000  0.98744000  1.0 0.128517789
H  H42  1  0.89783000  0.74921000  0.29969000  1.0 0.128517789
H  H43  1  0.22556000  0.61098000  0.82375000  1.0 0.128517789
H  H44  1  0.60286000  0.46444000  0.81673000  1.0 0.128517789
H  H45  1  0.50333000  0.23614000  0.81864000  1.0 0.1199338511
H  H46  1  0.36652000  0.49706000  0.98015000  1.0 0.1199338511
H  H47  1  0.99681000  0.55524000  0.37588000  1.0 0.1199338511
H  H48  1  0.02922000  0.59024000  0.26550000  1.0 0.1199338511
H  H49  1  0.19295000  0.80073000  0.85926000  1.0 0.128517789
H  H50  1  0.02080000  0.67771000  0.67991000  1.0 0.1199338511
H  H51  1  0.71709000  0.72790000  0.00151000  1.0 0.128517789
H  H52  1  0.68593000  0.19700000  0.96564000  1.0 0.1199338511
H  H53  1  0.76251000  0.45493000  0.53244000  1.0 0.128517789
H  H54  1  0.56191000  0.70005000  0.99131000  1.0 0.1199338511
H  H55  1  0.78467000  0.49897000  0.42257000  1.0 0.128517789
H  H56  1  0.55305000  0.08208000  0.98205000  1.0 0.1199338511
H  H57  1  0.24465000  0.01948000  0.06281000  1.0 0.1077892523
H  H58  1  0.38365000  0.11776000  0.03993000  1.0 0.128517789
H  H59  1  0.54481000  0.23062000  0.68767000  1.0 0.1199338511
H  H60  1  0.46126000  0.31757000  0.55328000  1.0 0.1394362403
H  H61  1  0.45818000  0.23238000  0.48385000  1.0 0.0986009839
H  H62  1  0.36163000  0.22070000  0.50383000  1.0 0.0585229419
H  H63  1  0.32051000  0.11053000  0.52638000  1.0 0.0793035133
H  H64  1  0.39108000  0.08422000  0.57245000  1.0 0.1077892523
H  H65  1  0.34900000  0.14314000  0.62311000  1.0 0.0986009839
H  H66  1  0.85100000  0.46300000  0.88800000  1.0 0.3303470913
H  H67  1  0.63173000  0.35990000  0.58263000  1.0 0.1077892523
H  H68  1  0.57283000  0.32084000  0.48764000  1.0 0.1077892523
H  H69  1  0.48821000  0.21370000  0.44080000  1.0 0.0793035133
H  H70  1  0.46550000  0.29647000  0.44392000  1.0 0.0912489615
H  H71  1  0.41885000  0.28493000  0.62692000  1.0 0.1199338511
H  H72  1  0.35304000  0.19974000  0.53971000  1.0 0.04843808
H  H73  1  0.42871000  0.19256000  0.60199000  1.0 0.1199338511
H  H74  1  0.08769000  0.98910000  0.11513000  1.0 0.0986009839
H  H75  1  0.00402000  0.12231000  0.26153000  1.0 0.128517789
H  H76  1  0.91050000  0.07283000  0.18274000  1.0 0.128517789
H  H77  1  0.93720000  0.01045000  0.22106000  1.0 0.1394362403
H  H78  1  0.07790000  0.19743000  0.18451000  1.0 0.1457628015
H  H79  1  0.15304000  0.16003000  0.17706000  1.0 0.128517789
H  H80  1  0.07337000  0.13626000  0.09672000  1.0 0.1394362403
C  C1  1  0.78890000  0.44570000  0.09100000  1.0 -0.0107863632
C  C2  1  0.74620000  0.48140000  0.04660000  1.0 -0.0794070173
C  C3  1  0.21970000  0.37790000  0.08630000  1.0 0.5800431851
C  C4  1  0.00080000  0.29480000  0.79390000  1.0 0.5800431851
C  C5  1  0.88020000  0.44090000  0.08210000  1.0 0.5800431851
C  C6  1  0.03130000  0.32350000  0.72670000  1.0 -0.0381515553
C  C7  1  0.30510000  0.70630000  0.12660000  1.0 0.557894111
C  C8  1  0.12730000  0.46270000  0.30910000  1.0 0.5800431851
C  C9  1  0.08040000  0.28840000  0.68400000  1.0 -0.0995471444
C  C10  1  0.32030000  0.39860000  0.09230000  1.0 -0.057505611
C  C11  1  0.74510000  0.41090000  0.14410000  1.0 -0.0995471444
C  C12  1  0.40510000  0.48800000  0.14790000  1.0 -0.0995471444
C  C13  1  0.09850000  0.30860000  0.61530000  1.0 -0.158207595
C  C14  1  0.06780000  0.36700000  0.59190000  1.0 0.0585229419
C  C15  1  0.51570000  0.43490000  0.10090000  1.0 0.04843808
C  C16  1  0.48720000  0.79590000  0.14930000  1.0 -0.1113212718
C  C17  1  0.61370000  0.44290000  0.10310000  1.0 0.0585229419
C  C18  1  0.49830000  0.50460000  0.14970000  1.0 -0.1392858267
C  C19  1  0.10840000  0.43690000  0.38280000  1.0 -0.018577287
C  C20  1  0.88870000  0.16650000  0.02340000  1.0 0.557894111
C  C21  1  0.39280000  0.77580000  0.11170000  1.0 -0.018577287
C  C22  1  0.66110000  0.47950000  0.05150000  1.0 -0.1113212718
C  C23  1  0.65670000  0.40870000  0.14960000  1.0 -0.1769950833
C  C24  1  0.02190000  0.40420000  0.63810000  1.0 -0.1392858267
C  C25  1  0.55730000  0.91180000  0.08830000  1.0 0.0420883451
C  C26  1  0.00270000  0.38380000  0.70440000  1.0 -0.0889696953
C  C27  1  0.77140000  0.13460000  0.10510000  1.0 -0.0889696953
C  C28  1  0.02610000  0.36070000  0.37290000  1.0 -0.0889696953
C  C29  1  0.08320000  0.38910000  0.51760000  1.0 0.0745151618
C  C30  1  0.56820000  0.86410000  0.13920000  1.0 -0.1706814465
C  C31  1  0.80120000  0.10310000  0.03780000  1.0 -0.0381515553
C  C32  1  0.63760000  0.97860000  0.06970000  1.0 0.0585229419
C  C33  1  0.33640000  0.32960000  0.03810000  1.0 -0.0889696953
C  C34  1  0.66760000  0.88510000  0.18140000  1.0 0.6366157237
C  C35  1  0.37790000  0.81900000  0.06160000  1.0 -0.0889696953
C  C36  1  0.17970000  0.49090000  0.45960000  1.0 -0.0794070173
C  C37  1  0.69370000  0.07610000  0.12090000  1.0 -0.1920296778
C  C38  1  0.00720000  0.33590000  0.44100000  1.0 -0.2275454175
C  C39  1  0.42970000  0.34740000  0.04380000  1.0 -0.1392858267
C  C40  1  0.15000000  0.26860000  0.56980000  1.0 0.614731491
C  C41  1  0.61270000  0.36940000  0.20580000  1.0 0.6165192727
C  C42  1  0.58340000  0.60140000  0.20070000  1.0 0.5925778154
C  C43  1  0.16560000  0.46460000  0.52600000  1.0 -0.1113212718
C  C44  1  0.45850000  0.88740000  0.05080000  1.0 -0.1280598637
C  C45  1  0.91440000  0.26400000  0.42740000  1.0 0.5800431851
C  C46  1  0.74030000  0.00550000  0.98380000  1.0 -0.0889696953
C  C47  1  0.65890000  0.11670000  0.18190000  1.0 0.6273645762
C  C48  1  0.65770000  0.94530000  0.99860000  1.0 -0.1392858267
C  C49  1  0.46120000  0.73600000  0.34420000  1.0 0.0912489615
C  C50  1  0.56800000  0.75100000  0.47300000  1.0 -0.0107863632
C  C51  1  0.62800000  0.86800000  0.42400000  1.0 -0.2792984691
C  C52  1  0.41800000  0.66900000  0.39680000  1.0 0.0420883451
C  C53  1  0.49600000  0.72200000  0.52570000  1.0 -0.249338321
C  C54  1  0.58300000  0.76500000  0.41800000  1.0 0.0068978866
C  C55  1  0.96800000  0.01810000  0.87100000  1.0 0.2635402385
C  C56  1  0.03600000  0.93300000  0.79000000  1.0 -0.2792984691
C  C57  1  0.91400000  0.85460000  0.84600000  1.0 -0.3164466467
C  C58  1  0.21110000  0.55430000  0.90900000  1.0 -0.0107863632
C  C59  1  0.25380000  0.51860000  0.95340000  1.0 -0.0794070173
C  C60  1  0.78030000  0.62210000  0.91370000  1.0 0.5800431851
C  C61  1  0.99920000  0.70520000  0.20610000  1.0 0.5800431851
C  C62  1  0.11980000  0.55910000  0.91790000  1.0 0.5800431851
C  C63  1  0.96870000  0.67650000  0.27330000  1.0 -0.0381515553
C  C64  1  0.69490000  0.29370000  0.87340000  1.0 0.557894111
C  C65  1  0.87270000  0.53730000  0.69090000  1.0 0.5800431851
C  C66  1  0.91960000  0.71160000  0.31600000  1.0 -0.0995471444
C  C67  1  0.67970000  0.60140000  0.90770000  1.0 -0.057505611
C  C68  1  0.25490000  0.58910000  0.85590000  1.0 -0.1113212718
C  C69  1  0.59490000  0.51200000  0.85210000  1.0 -0.0995471444
C  C70  1  0.90150000  0.69140000  0.38470000  1.0 -0.158207595
C  C71  1  0.93220000  0.63300000  0.40810000  1.0 0.0585229419
C  C72  1  0.48430000  0.56510000  0.89910000  1.0 0.04843808
C  C73  1  0.51280000  0.20410000  0.85070000  1.0 -0.1113212718
C  C74  1  0.38630000  0.55710000  0.89690000  1.0 0.0585229419
C  C75  1  0.50170000  0.49540000  0.85030000  1.0 -0.1392858267
C  C76  1  0.89160000  0.56310000  0.61720000  1.0 -0.018577287
C  C77  1  0.11130000  0.83350000  0.97660000  1.0 0.557894111
C  C78  1  0.60720000  0.22420000  0.88830000  1.0 -0.018577287
C  C79  1  0.33890000  0.52050000  0.94850000  1.0 -0.1113212718
C  C80  1  0.34330000  0.59130000  0.85040000  1.0 -0.1769950833
C  C81  1  0.97810000  0.59580000  0.36190000  1.0 -0.1392858267
C  C82  1  0.44270000  0.08820000  0.91170000  1.0 0.0420883451
C  C83  1  0.99730000  0.61620000  0.29560000  1.0 -0.0889696953
C  C84  1  0.22860000  0.86540000  0.89490000  1.0 -0.0889696953
C  C85  1  0.97390000  0.63930000  0.62710000  1.0 -0.0889696953
C  C86  1  0.91680000  0.61090000  0.48240000  1.0 0.0745151618
C  C87  1  0.43180000  0.13590000  0.86080000  1.0 -0.1706814465
C  C88  1  0.19880000  0.89690000  0.96220000  1.0 -0.0381515553
C  C89  1  0.36240000  0.02140000  0.93030000  1.0 0.0585229419
C  C90  1  0.66360000  0.67040000  0.96190000  1.0 -0.0889696953
C  C91  1  0.33240000  0.11490000  0.81860000  1.0 0.6366157237
C  C92  1  0.62210000  0.18100000  0.93840000  1.0 -0.0889696953
C  C93  1  0.82030000  0.50910000  0.54040000  1.0 -0.0794070173
C  C94  1  0.30630000  0.92390000  0.87910000  1.0 -0.1920296778
C  C95  1  0.99280000  0.66410000  0.55900000  1.0 -0.2275454175
C  C96  1  0.57030000  0.65260000  0.95620000  1.0 -0.1392858267
C  C97  1  0.85000000  0.73140000  0.43020000  1.0 0.614731491
C  C98  1  0.38730000  0.63060000  0.79420000  1.0 0.6165192727
C  C99  1  0.41660000  0.39860000  0.79930000  1.0 0.5925778154
C  C100  1  0.83440000  0.53540000  0.47400000  1.0 -0.1113212718
C  C101  1  0.54150000  0.11260000  0.94920000  1.0 -0.1280598637
C  C102  1  0.08560000  0.73600000  0.57260000  1.0 0.5800431851
C  C103  1  0.25970000  0.99450000  0.01620000  1.0 -0.0889696953
C  C104  1  0.34110000  0.88330000  0.81810000  1.0 0.6273645762
C  C105  1  0.34230000  0.05470000  0.00140000  1.0 -0.1392858267
C  C106  1  0.53880000  0.26400000  0.65580000  1.0 0.0912489615
C  C107  1  0.43200000  0.24900000  0.52700000  1.0 -0.018577287
C  C108  1  0.37200000  0.13200000  0.57600000  1.0 -0.2792984691
C  C109  1  0.58200000  0.33100000  0.60320000  1.0 0.0420883451
C  C110  1  0.50400000  0.27800000  0.47430000  1.0 -0.249338321
C  C111  1  0.41700000  0.23500000  0.58200000  1.0 0.0068978866
C  C112  1  0.03200000  0.98190000  0.12900000  1.0 0.2635402385
C  C113  1  0.96400000  0.06700000  0.21000000  1.0 -0.2792984691
C  C114  1  0.08600000  0.14540000  0.15400000  1.0 -0.3164466467
N  N1  1  0.54560000  0.78190000  0.41240000  1.0 0.0068978866
N  N2  1  0.51200000  0.72530000  0.45140000  1.0 -0.018577287
N  N3  1  0.98010000  0.93970000  0.84040000  1.0 0.04843808
N  N4  1  0.45440000  0.21810000  0.58760000  1.0 0.0068978866
N  N5  1  0.48800000  0.27470000  0.54860000  1.0 -0.018577287
N  N6  1  0.01990000  0.06030000  0.15960000  1.0 0.04843808
O  O1  1  0.11180000  0.53800000  0.15200000  1.0 -0.819188058
O  O2  1  0.92290000  0.48120000  0.03940000  1.0 -0.5513512786
O  O3  1  0.00120000  0.34560000  0.98600000  1.0 -0.7921059724
O  O4  1  0.92890000  0.30210000  0.81160000  1.0 -0.5145418044
O  O5  1  0.04720000  0.26300000  0.82970000  1.0 -0.5407878455
O  O6  1  0.22750000  0.70190000  0.10110000  1.0 -0.4786936339
O  O7  1  0.90540000  0.39560000  0.11530000  1.0 -0.4865936335
O  O8  1  0.20290000  0.43370000  0.13810000  1.0 -0.561347216
O  O9  1  0.32150000  0.65760000  0.16230000  1.0 -0.5513512786
O  O10  1  0.95460000  0.23600000  0.08610000  1.0 -0.5183057185
O  O11  1  0.15090000  0.29880000  0.02820000  1.0 -0.5513512786
O  O12  1  0.05850000  0.40040000  0.24050000  1.0 -0.5513512786
O  O13  1  0.20340000  0.53600000  0.32110000  1.0 -0.5283010002
O  O14  1  0.23580000  0.71760000  0.29680000  1.0 -0.1113212718
O  O15  1  0.03480000  0.10240000  0.87980000  1.0 -0.4967226383
O  O16  1  0.89260000  0.13890000  0.95100000  1.0 -0.5407878455
O  O17  1  0.39360000  0.65370000  0.32290000  1.0 -0.3276162442
O  O18  1  0.88820000  0.46200000  0.84800000  1.0 -0.819188058
O  O19  1  0.07710000  0.51880000  0.96060000  1.0 -0.5513512786
O  O20  1  0.99880000  0.65440000  0.01400000  1.0 -0.7921059724
O  O21  1  0.07110000  0.69790000  0.18840000  1.0 -0.5145418044
O  O22  1  0.95280000  0.73700000  0.17030000  1.0 -0.5407878455
O  O23  1  0.77250000  0.29810000  0.89890000  1.0 -0.4786936339
O  O24  1  0.09460000  0.60440000  0.88470000  1.0 -0.4865936335
O  O25  1  0.79710000  0.56630000  0.86190000  1.0 -0.561347216
O  O26  1  0.67850000  0.34240000  0.83770000  1.0 -0.5513512786
O  O27  1  0.04540000  0.76400000  0.91390000  1.0 -0.5183057185
O  O28  1  0.84910000  0.70120000  0.97180000  1.0 -0.5513512786
O  O29  1  0.94150000  0.59960000  0.75950000  1.0 -0.5513512786
O  O30  1  0.79660000  0.46400000  0.67890000  1.0 -0.5283010002
O  O31  1  0.76420000  0.28240000  0.70320000  1.0 -0.1113212718
O  O32  1  0.96520000  0.89760000  0.12020000  1.0 -0.4967226383
O  O33  1  0.10740000  0.86110000  0.04900000  1.0 -0.5407878455
O  O34  1  0.60640000  0.34630000  0.67710000  1.0 -0.3276162442
F  F1  1  0.66810000  0.35270000  0.25540000  1.0 -0.1985597619
F  F2  1  0.17390000  0.21360000  0.60000000  1.0 -0.2389883917
F  F3  1  0.56160000  0.66330000  0.24360000  1.0 -0.2205281527
F  F4  1  0.23650000  0.33390000  0.56970000  1.0 -0.2792984691
F  F5  1  0.56750000  0.40550000  0.24320000  1.0 -0.1920296778
F  F6  1  0.65910000  0.60430000  0.24270000  1.0 -0.1920296778
F  F7  1  0.73540000  0.97730000  0.22650000  1.0 -0.1920296778
F  F8  1  0.09800000  0.21380000  0.48830000  1.0 -0.2205281527
F  F9  1  0.67040000  0.84910000  0.24070000  1.0 -0.2389883917
F  F10  1  0.90760000  0.20220000  0.46480000  1.0 -0.1706814465
F  F11  1  0.64350000  0.07890000  0.23970000  1.0 -0.1985597619
F  F12  1  0.72090000  0.21230000  0.23020000  1.0 -0.2131230232
F  F13  1  0.85700000  0.20190000  0.34780000  1.0 -0.1985597619
F  F14  1  0.70990000  0.85370000  0.12990000  1.0 -0.1985597619
F  F15  1  0.53310000  0.27490000  0.16240000  1.0 -0.1985597619
F  F16  1  0.85150000  0.29220000  0.45700000  1.0 -0.1985597619
F  F17  1  0.56710000  0.10640000  0.14900000  1.0 -0.2205281527
F  F18  1  0.62200000  0.64460000  0.14920000  1.0 -0.1920296778
F  F19  1  0.33190000  0.64730000  0.74460000  1.0 -0.1985597619
F  F20  1  0.82610000  0.78640000  0.40000000  1.0 -0.2389883917
F  F21  1  0.43840000  0.33670000  0.75640000  1.0 -0.2205281527
F  F22  1  0.76350000  0.66610000  0.43030000  1.0 -0.2792984691
F  F23  1  0.43250000  0.59450000  0.75680000  1.0 -0.1985597619
F  F24  1  0.34090000  0.39570000  0.75730000  1.0 -0.1920296778
F  F25  1  0.26460000  0.02270000  0.77350000  1.0 -0.1920296778
F  F26  1  0.90200000  0.78620000  0.51170000  1.0 -0.2205281527
F  F27  1  0.32960000  0.15090000  0.75930000  1.0 -0.2389883917
F  F28  1  0.09240000  0.79780000  0.53520000  1.0 -0.1706814465
F  F29  1  0.35650000  0.92110000  0.76030000  1.0 -0.1985597619
F  F30  1  0.27910000  0.78770000  0.76980000  1.0 -0.2131230232
F  F31  1  0.14300000  0.79810000  0.65220000  1.0 -0.1985597619
F  F32  1  0.29010000  0.14630000  0.87010000  1.0 -0.1985597619
F  F33  1  0.46690000  0.72510000  0.83760000  1.0 -0.1985597619
F  F34  1  0.14850000  0.70780000  0.54300000  1.0 -0.1985597619
F  F35  1  0.43290000  0.89360000  0.85100000  1.0 -0.2205281527
F  F36  1  0.37800000  0.35540000  0.85080000  1.0 -0.1920296778
