# DDEC6 charges by PACMAN v1.1 (https://github.com/mtap-research/PACMAN-charge/)
data_XEDFAR_FSR_pacman
_symmetry_space_group_name_H-M   'P 1'
_cell_length_a   15.90290000
_cell_length_b   17.12910000
_cell_length_c   17.55300000
_cell_angle_alpha   117.09500000
_cell_angle_beta   110.72200000
_cell_angle_gamma   84.68600000
_symmetry_Int_Tables_number   1
_chemical_formula_structural   Mn4H33C55N2O19F21
_chemical_formula_sum   'Mn8 H66 C110 N4 O38 F42'
_cell_volume   3967.83526750
_cell_formula_units_Z   2
loop_
 _symmetry_equiv_pos_site_id
 _symmetry_equiv_pos_as_xyz
  1  'x, y, z'
loop_
 _atom_site_type_symbol
 _atom_site_label
 _atom_site_symmetry_multiplicity
 _atom_site_fract_x
 _atom_site_fract_y
 _atom_site_fract_z
 _atom_site_occupancy
 _atom_site_charge
Mn  Mn1  1  0.34629000  0.90501000  0.28866000  1.0 1.1331894555
Mn  Mn2  1  0.48858000  0.09649000  0.49539000  1.0 1.1331894555
Mn  Mn3  1  0.67959000  0.26466000  0.64720000  1.0 1.1125415006
Mn  Mn4  1  0.71210000  0.85714000  0.65413000  1.0 1.1354754605
Mn  Mn5  1  0.65371000  0.09499000  0.71134000  1.0 1.1331894555
Mn  Mn6  1  0.51142000  0.90351000  0.50461000  1.0 1.1331894555
Mn  Mn7  1  0.32041000  0.73534000  0.35280000  1.0 1.1125415006
Mn  Mn8  1  0.28790000  0.14286000  0.34587000  1.0 1.1331894555
H  H1  1  0.39331000  0.16204000  0.77882000  1.0 0.1289590144
H  H2  1  0.14324000  0.01514000  0.51875000  1.0 0.1214241084
H  H3  1  0.28658000  0.99842000  0.51021000  1.0 0.1385716474
H  H4  1  0.45790000  0.28410000  0.72604000  1.0 0.1214241084
H  H5  1  0.45096000  0.39363000  0.86354000  1.0 0.1214241084
H  H6  1  0.22901000  0.35567000  0.58995000  1.0 0.1093659245
H  H7  1  0.23982000  0.53410000  0.04851000  1.0 0.1289590144
H  H8  1  0.24618000  0.43373000  0.90714000  1.0 0.1214241084
H  H9  1  0.41700000  0.70208000  0.06961000  1.0 0.1289590144
H  H10  1  0.96075000  0.04033000  0.72836000  1.0 0.1385716474
H  H11  1  0.10204000  0.02759000  0.71511000  1.0 0.1021656686
H  H12  1  0.90046000  0.19997000  0.60853000  1.0 0.1214241084
H  H13  1  0.70348000  0.90138000  0.92203000  1.0 0.1289590144
H  H14  1  0.68680000  0.94100000  0.06080000  1.0 0.170321081
H  H15  1  0.66465000  0.14819000  0.95455000  1.0 0.1385716474
H  H16  1  0.76916000  0.17948000  0.40427000  1.0 0.1093659245
H  H17  1  0.50915000  0.08549000  0.26662000  1.0 0.1289590144
H  H18  1  0.52885000  0.04971000  0.12999000  1.0 0.1289590144
H  H19  1  0.79567000  0.32024000  0.56891000  1.0 0.1021656686
H  H20  1  0.76311000  0.54758000  0.68274000  1.0 0.1385716474
H  H21  1  0.84306000  0.58039000  0.66919000  1.0 0.1021656686
H  H22  1  0.86283000  0.54921000  0.74466000  1.0 0.1385716474
H  H23  1  0.91307000  0.40796000  0.55525000  1.0 0.1289590144
H  H24  1  0.88590000  0.50363000  0.57408000  1.0 0.1214241084
H  H25  1  0.81672000  0.42261000  0.49962000  1.0 0.1289590144
H  H26  1  0.64797000  0.18781000  0.09332000  1.0 0.1803627798
H  H27  1  0.92302000  0.67837000  0.54544000  1.0 0.1289590144
H  H28  1  0.96626000  0.60772000  0.57790000  1.0 0.1214241084
H  H29  1  0.02249000  0.69597000  0.61437000  1.0 0.1289590144
H  H30  1  0.81972000  0.72622000  0.58419000  1.0 0.0854483285
H  H31  1  0.01948000  0.64910000  0.73531000  1.0 0.1214241084
H  H32  1  0.97412000  0.72508000  0.79607000  1.0 0.1385716474
H  H33  1  0.04887000  0.74748000  0.76844000  1.0 0.1214241084
H  H34  1  0.60669000  0.83796000  0.22118000  1.0 0.1289590144
H  H35  1  0.85676000  0.98486000  0.48125000  1.0 0.1214241084
H  H36  1  0.71342000  0.00158000  0.48979000  1.0 0.1385716474
H  H37  1  0.54210000  0.71590000  0.27396000  1.0 0.1214241084
H  H38  1  0.54904000  0.60637000  0.13646000  1.0 0.1214241084
H  H39  1  0.77099000  0.64433000  0.41005000  1.0 0.1093659245
H  H40  1  0.76018000  0.46590000  0.95149000  1.0 0.1289590144
H  H41  1  0.75382000  0.56627000  0.09286000  1.0 0.1214241084
H  H42  1  0.58300000  0.29792000  0.93039000  1.0 0.1289590144
H  H43  1  0.03925000  0.95967000  0.27164000  1.0 0.1385716474
H  H44  1  0.89796000  0.97241000  0.28489000  1.0 0.1093659245
H  H45  1  0.09954000  0.80003000  0.39147000  1.0 0.1214241084
H  H46  1  0.29652000  0.09862000  0.07797000  1.0 0.1289590144
H  H47  1  0.31320000  0.05900000  0.93920000  1.0 0.170321081
H  H48  1  0.33535000  0.85181000  0.04545000  1.0 0.1385716474
H  H49  1  0.23084000  0.82052000  0.59573000  1.0 0.1093659245
H  H50  1  0.49085000  0.91451000  0.73338000  1.0 0.1289590144
H  H51  1  0.47115000  0.95029000  0.87001000  1.0 0.1289590144
H  H52  1  0.20433000  0.67976000  0.43109000  1.0 0.1021656686
H  H53  1  0.23689000  0.45242000  0.31726000  1.0 0.1385716474
H  H54  1  0.15694000  0.41961000  0.33081000  1.0 0.1021656686
H  H55  1  0.13717000  0.45079000  0.25534000  1.0 0.1385716474
H  H56  1  0.08693000  0.59204000  0.44475000  1.0 0.1289590144
H  H57  1  0.11410000  0.49637000  0.42592000  1.0 0.1214241084
H  H58  1  0.18328000  0.57739000  0.50038000  1.0 0.1289590144
H  H59  1  0.35203000  0.81219000  0.90668000  1.0 0.1803627798
H  H60  1  0.07698000  0.32163000  0.45456000  1.0 0.1289590144
H  H61  1  0.03374000  0.39228000  0.42210000  1.0 0.1214241084
H  H62  1  0.97751000  0.30403000  0.38563000  1.0 0.1289590144
H  H63  1  0.18028000  0.27378000  0.41581000  1.0 0.0854483285
H  H64  1  0.98052000  0.35090000  0.26469000  1.0 0.1214241084
H  H65  1  0.02588000  0.27492000  0.20393000  1.0 0.1385716474
H  H66  1  0.95113000  0.25252000  0.23156000  1.0 0.1214241084
C  C1  1  0.35420000  0.07860000  0.64370000  1.0 -0.002898385
C  C2  1  0.34320000  0.13260000  0.72670000  1.0 -0.1032560988
C  C3  1  0.25730000  0.14260000  0.73180000  1.0 -0.1786359933
C  C4  1  0.18240000  0.09860000  0.65390000  1.0 0.0493127506
C  C5  1  0.19340000  0.04460000  0.57090000  1.0 -0.1192401527
C  C6  1  0.27920000  0.03460000  0.56580000  1.0 -0.0696047059
C  C7  1  0.44890000  0.06690000  0.64030000  1.0 0.5856115856
C  C8  1  0.34410000  0.30900000  0.64440000  1.0 -0.0099070276
C  C9  1  0.41060000  0.32040000  0.72630000  1.0 -0.0908545267
C  C10  1  0.40650000  0.38600000  0.80870000  1.0 -0.1321127426
C  C11  1  0.33580000  0.44030000  0.80910000  1.0 0.0493127506
C  C12  1  0.26930000  0.42890000  0.72720000  1.0 -0.1378135891
C  C13  1  0.27350000  0.36330000  0.64480000  1.0 -0.1321127426
C  C14  1  0.32270000  0.69550000  0.16410000  1.0 0.570987745
C  C15  1  0.82670000  0.14200000  0.68540000  1.0 0.570987745
C  C16  1  0.32780000  0.62800000  0.07310000  1.0 0.008233511
C  C17  1  0.27660000  0.54770000  0.02440000  1.0 -0.0908545267
C  C18  1  0.28040000  0.48750000  0.93970000  1.0 -0.1192401527
C  C19  1  0.33540000  0.50780000  0.90370000  1.0 0.0493127506
C  C20  1  0.38660000  0.58820000  0.95240000  1.0 -0.1321127426
C  C21  1  0.38280000  0.64830000  0.03700000  1.0 -0.1133173418
C  C22  1  0.91660000  0.12140000  0.66980000  1.0 -0.0099070276
C  C23  1  0.97700000  0.06980000  0.70170000  1.0 -0.0908545267
C  C24  1  0.06160000  0.06210000  0.69370000  1.0 -0.1491719372
C  C25  1  0.08590000  0.10620000  0.65390000  1.0 0.0386869051
C  C26  1  0.02550000  0.15780000  0.62200000  1.0 -0.1491719372
C  C27  1  0.94090000  0.16540000  0.62990000  1.0 -0.1192401527
C  C28  1  0.69830000  0.99650000  0.83520000  1.0 0.570987745
C  C29  1  0.34970000  0.24000000  0.55420000  1.0 0.5522038975
C  C30  1  0.62230000  0.16310000  0.43740000  1.0 0.5522038975
C  C31  1  0.68570000  0.02090000  0.92450000  1.0 -0.015837191
C  C32  1  0.69240000  0.95880000  0.95640000  1.0 -0.1032560988
C  C33  1  0.68240000  0.98250000  0.03950000  1.0 -0.1491719372
C  C34  1  0.66570000  0.06830000  0.09080000  1.0 -0.0099070276
C  C35  1  0.65910000  0.13040000  0.05900000  1.0 -0.1786359933
C  C36  1  0.66910000  0.10670000  0.97580000  1.0 -0.0762263722
C  C37  1  0.72100000  0.15350000  0.34930000  1.0 -0.1192401527
C  C38  1  0.63720000  0.13600000  0.34900000  1.0 -0.002898385
C  C39  1  0.56520000  0.09720000  0.26680000  1.0 -0.0696047059
C  C40  1  0.57700000  0.07570000  0.18500000  1.0 -0.1491719372
C  C41  1  0.66080000  0.09320000  0.18530000  1.0 -0.0099070276
C  C42  1  0.73280000  0.13200000  0.26740000  1.0 -0.1491719372
C  C43  1  0.24850000  0.20800000  0.82050000  1.0 0.5965309777
C  C44  1  0.19250000  0.48660000  0.72260000  1.0 0.6429327168
C  C45  1  0.04600000  0.20260000  0.57270000  1.0 0.6506423989
C  C46  1  0.46190000  0.60320000  0.92400000  1.0 0.6506423989
C  C47  1  0.82180000  0.15730000  0.26850000  1.0 0.6295337119
C  C48  1  0.63340000  0.21660000  0.11920000  1.0 0.4008580484
C  C49  1  0.79380000  0.37510000  0.61550000  1.0 0.2929090896
C  C50  1  0.82400000  0.53940000  0.68440000  1.0 -0.3109552375
C  C51  1  0.86500000  0.44570000  0.55810000  1.0 -0.3232693858
C  C52  1  0.68810000  0.92300000  0.08400000  1.0 0.3655093648
C  C53  1  0.96300000  0.67000000  0.59600000  1.0 -0.3306820354
C  C54  1  0.84500000  0.73100000  0.64300000  1.0 0.2708023229
C  C55  1  0.99900000  0.70700000  0.74900000  1.0 -0.3232693858
C  C56  1  0.64580000  0.92140000  0.35630000  1.0 -0.002898385
C  C57  1  0.65680000  0.86740000  0.27330000  1.0 -0.1032560988
C  C58  1  0.74270000  0.85740000  0.26820000  1.0 -0.1786359933
C  C59  1  0.81760000  0.90140000  0.34610000  1.0 0.0493127506
C  C60  1  0.80660000  0.95540000  0.42910000  1.0 -0.1192401527
C  C61  1  0.72080000  0.96540000  0.43420000  1.0 -0.0696047059
C  C62  1  0.55110000  0.93310000  0.35970000  1.0 0.5856115856
C  C63  1  0.65590000  0.69100000  0.35560000  1.0 -0.0099070276
C  C64  1  0.58940000  0.67960000  0.27370000  1.0 -0.0908545267
C  C65  1  0.59350000  0.61400000  0.19130000  1.0 -0.1321127426
C  C66  1  0.66420000  0.55970000  0.19090000  1.0 0.0493127506
C  C67  1  0.73070000  0.57110000  0.27280000  1.0 -0.1378135891
C  C68  1  0.72650000  0.63670000  0.35520000  1.0 -0.1321127426
C  C69  1  0.67730000  0.30450000  0.83590000  1.0 0.570987745
C  C70  1  0.17330000  0.85800000  0.31460000  1.0 0.570987745
C  C71  1  0.67220000  0.37200000  0.92690000  1.0 0.008233511
C  C72  1  0.72340000  0.45230000  0.97560000  1.0 -0.0908545267
C  C73  1  0.71960000  0.51250000  0.06030000  1.0 -0.1192401527
C  C74  1  0.66460000  0.49220000  0.09630000  1.0 0.0493127506
C  C75  1  0.61340000  0.41180000  0.04760000  1.0 -0.1321127426
C  C76  1  0.61720000  0.35170000  0.96300000  1.0 -0.1133173418
C  C77  1  0.08340000  0.87860000  0.33020000  1.0 -0.002898385
C  C78  1  0.02300000  0.93020000  0.29830000  1.0 -0.0908545267
C  C79  1  0.93840000  0.93790000  0.30630000  1.0 -0.1491719372
C  C80  1  0.91410000  0.89380000  0.34610000  1.0 0.0386869051
C  C81  1  0.97450000  0.84220000  0.37800000  1.0 -0.1491719372
C  C82  1  0.05910000  0.83460000  0.37010000  1.0 -0.1192401527
C  C83  1  0.30170000  0.00350000  0.16480000  1.0 0.570987745
C  C84  1  0.65030000  0.76000000  0.44580000  1.0 0.5522038975
C  C85  1  0.37770000  0.83690000  0.56260000  1.0 0.5522038975
C  C86  1  0.31430000  0.97910000  0.07550000  1.0 -0.015837191
C  C87  1  0.30760000  0.04120000  0.04360000  1.0 -0.1032560988
C  C88  1  0.31760000  0.01750000  0.96050000  1.0 -0.1491719372
C  C89  1  0.33430000  0.93170000  0.90920000  1.0 -0.0099070276
C  C90  1  0.34090000  0.86960000  0.94100000  1.0 -0.1786359933
C  C91  1  0.33090000  0.89330000  0.02420000  1.0 -0.0762263722
C  C92  1  0.27900000  0.84650000  0.65070000  1.0 -0.1192401527
C  C93  1  0.36280000  0.86400000  0.65100000  1.0 -0.0099070276
C  C94  1  0.43480000  0.90280000  0.73320000  1.0 -0.0696047059
C  C95  1  0.42300000  0.92430000  0.81500000  1.0 -0.1491719372
C  C96  1  0.33920000  0.90680000  0.81470000  1.0 -0.0099070276
C  C97  1  0.26720000  0.86800000  0.73260000  1.0 -0.1491719372
C  C98  1  0.75150000  0.79200000  0.17950000  1.0 0.5965309777
C  C99  1  0.80750000  0.51340000  0.27740000  1.0 0.6429327168
C  C100  1  0.95400000  0.79740000  0.42730000  1.0 0.6506423989
C  C101  1  0.53810000  0.39680000  0.07600000  1.0 0.6506423989
C  C102  1  0.17820000  0.84270000  0.73150000  1.0 0.6295337119
C  C103  1  0.36660000  0.78340000  0.88080000  1.0 0.4008580484
C  C104  1  0.20620000  0.62490000  0.38450000  1.0 0.2929090896
C  C105  1  0.17600000  0.46060000  0.31560000  1.0 -0.3109552375
C  C106  1  0.13500000  0.55430000  0.44190000  1.0 -0.3232693858
C  C107  1  0.31190000  0.07700000  0.91600000  1.0 0.3634752967
C  C108  1  0.03700000  0.33000000  0.40400000  1.0 -0.3306820354
C  C109  1  0.15500000  0.26900000  0.35700000  1.0 0.2708023229
C  C110  1  0.00100000  0.29300000  0.25100000  1.0 -0.3232693858
N  N1  1  0.83220000  0.44970000  0.62420000  1.0 0.0330416468
N  N2  1  0.93160000  0.70500000  0.66800000  1.0 0.008233511
N  N3  1  0.16780000  0.55030000  0.37580000  1.0 0.0330416468
N  N4  1  0.06840000  0.29500000  0.33200000  1.0 0.008233511
O  O1  1  0.36820000  0.04640000  0.38030000  1.0 -0.710893359
O  O2  1  0.60630000  0.14650000  0.61400000  1.0 -0.710893359
O  O3  1  0.45200000  0.02660000  0.55880000  1.0 -0.5653279982
O  O4  1  0.42660000  0.21170000  0.56020000  1.0 -0.4909177086
O  O5  1  0.51500000  0.09470000  0.71150000  1.0 -0.4788684509
O  O6  1  0.78760000  0.08820000  0.69350000  1.0 -0.4399061313
O  O7  1  0.33080000  0.77320000  0.18260000  1.0 -0.5039651058
O  O8  1  0.70330000  0.05850000  0.81810000  1.0 -0.4909177086
O  O9  1  0.54600000  0.14520000  0.43180000  1.0 -0.4788684509
O  O10  1  0.28290000  0.21680000  0.48370000  1.0 -0.5376158319
O  O11  1  0.68820000  0.19780000  0.51040000  1.0 -0.5471314749
O  O12  1  0.31740000  0.66390000  0.21520000  1.0 -0.5281233154
O  O13  1  0.56220000  0.33080000  0.60560000  1.0 -0.0696047059
O  O14  1  0.80010000  0.21360000  0.69090000  1.0 -0.5281233154
O  O15  1  0.70210000  0.91730000  0.78660000  1.0 -0.5281233154
O  O16  1  0.59950000  0.76490000  0.61550000  1.0 -0.1491719372
O  O17  1  0.83200000  0.93370000  0.69430000  1.0 -0.2416524774
O  O18  1  0.75680000  0.38090000  0.66970000  1.0 -0.4534231386
O  O19  1  0.80010000  0.76150000  0.69360000  1.0 -0.4788684509
O  O20  1  0.63180000  0.95360000  0.61970000  1.0 -0.710893359
O  O21  1  0.39370000  0.85350000  0.38600000  1.0 -0.710893359
O  O22  1  0.54800000  0.97340000  0.44120000  1.0 -0.5653279982
O  O23  1  0.57340000  0.78830000  0.43980000  1.0 -0.4909177086
O  O24  1  0.48500000  0.90530000  0.28850000  1.0 -0.4788684509
O  O25  1  0.21240000  0.91180000  0.30650000  1.0 -0.4399061313
O  O26  1  0.66920000  0.22680000  0.81740000  1.0 -0.5039651058
O  O27  1  0.29670000  0.94150000  0.18190000  1.0 -0.4909177086
O  O28  1  0.45400000  0.85480000  0.56820000  1.0 -0.4788684509
O  O29  1  0.71710000  0.78320000  0.51630000  1.0 -0.5376158319
O  O30  1  0.31180000  0.80220000  0.48960000  1.0 -0.5471314749
O  O31  1  0.68260000  0.33610000  0.78480000  1.0 -0.5281233154
O  O32  1  0.43780000  0.66920000  0.39440000  1.0 -0.0631479546
O  O33  1  0.19990000  0.78640000  0.30910000  1.0 -0.5281233154
O  O34  1  0.29790000  0.08270000  0.21340000  1.0 -0.5281233154
O  O35  1  0.40050000  0.23510000  0.38450000  1.0 -0.1491719372
O  O36  1  0.16800000  0.06630000  0.30570000  1.0 -0.2416524774
O  O37  1  0.24320000  0.61910000  0.33030000  1.0 -0.4554610214
O  O38  1  0.19990000  0.23850000  0.30640000  1.0 -0.4788684509
F  F1  1  0.32360000  0.25680000  0.88130000  1.0 -0.1896595704
F  F2  1  0.18830000  0.26500000  0.81160000  1.0 -0.1786359933
F  F3  1  0.42990000  0.59210000  0.84030000  1.0 -0.2104099181
F  F4  1  0.21890000  0.57090000  0.77490000  1.0 -0.1971911899
F  F5  1  0.14620000  0.47400000  0.64080000  1.0 -0.1971911899
F  F6  1  0.21710000  0.17230000  0.85780000  1.0 -0.0335145349
F  F7  1  0.13550000  0.47320000  0.75530000  1.0 -0.1896595704
F  F8  1  0.98600000  0.26010000  0.56250000  1.0 -0.2104099181
F  F9  1  0.50160000  0.68400000  0.97870000  1.0 -0.2104099181
F  F10  1  0.12360000  0.24690000  0.61790000  1.0 -0.1896595704
F  F11  1  0.04410000  0.14590000  0.49100000  1.0 -0.1896595704
F  F12  1  0.52580000  0.54710000  0.92620000  1.0 -0.1971911899
F  F13  1  0.81590000  0.21700000  0.23960000  1.0 -0.1896595704
F  F14  1  0.85190000  0.09030000  0.21430000  1.0 -0.1896595704
F  F15  1  0.88080000  0.18350000  0.34860000  1.0 -0.1896595704
F  F16  1  0.68070000  0.25030000  0.20380000  1.0 -0.1378135891
F  F17  1  0.65120000  0.26520000  0.08560000  1.0 -0.1625824272
F  F18  1  0.54980000  0.20870000  0.10490000  1.0 -0.1625824272
F  F19  1  0.76200000  0.92200000  0.14400000  1.0 -0.1192401527
F  F20  1  0.67200000  0.85000000  0.00800000  1.0 -0.1378135891
F  F21  1  0.62300000  0.92700000  0.11400000  1.0 -0.1491719372
F  F22  1  0.67640000  0.74320000  0.11870000  1.0 -0.1896595704
F  F23  1  0.81170000  0.73500000  0.18840000  1.0 -0.1786359933
F  F24  1  0.57010000  0.40790000  0.15970000  1.0 -0.2104099181
F  F25  1  0.78110000  0.42910000  0.22510000  1.0 -0.1971911899
F  F26  1  0.85380000  0.52600000  0.35920000  1.0 -0.1971911899
F  F27  1  0.78290000  0.82770000  0.14220000  1.0 -0.0335145349
F  F28  1  0.86450000  0.52680000  0.24470000  1.0 -0.1896595704
F  F29  1  0.01400000  0.73990000  0.43750000  1.0 -0.2104099181
F  F30  1  0.49840000  0.31600000  0.02130000  1.0 -0.2104099181
F  F31  1  0.87640000  0.75310000  0.38210000  1.0 -0.1896595704
F  F32  1  0.95590000  0.85410000  0.50900000  1.0 -0.1896595704
F  F33  1  0.47420000  0.45290000  0.07380000  1.0 -0.1971911899
F  F34  1  0.18410000  0.78300000  0.76040000  1.0 -0.1896595704
F  F35  1  0.14810000  0.90970000  0.78570000  1.0 -0.1896595704
F  F36  1  0.11920000  0.81650000  0.65140000  1.0 -0.1896595704
F  F37  1  0.31930000  0.74970000  0.79620000  1.0 -0.1378135891
F  F38  1  0.34880000  0.73480000  0.91440000  1.0 -0.1625824272
F  F39  1  0.45020000  0.79130000  0.89510000  1.0 -0.1625824272
F  F40  1  0.23800000  0.07800000  0.85600000  1.0 -0.1133173418
F  F41  1  0.32800000  0.15000000  0.99200000  1.0 -0.1378135891
F  F42  1  0.37700000  0.07300000  0.88600000  1.0 -0.1491719372
