# DDEC6 charges by PACMAN v1.1 (https://github.com/mtap-research/PACMAN-charge/)
data_XEDXEM_ASR_pacman
_symmetry_space_group_name_H-M   'P 1'
_cell_length_a   7.82080000
_cell_length_b   15.16350000
_cell_length_c   13.25860000
_cell_angle_alpha   90.00000000
_cell_angle_beta   99.98900000
_cell_angle_gamma   90.00000000
_symmetry_Int_Tables_number   1
_chemical_formula_structural   CdH22C24(N4O3)2
_chemical_formula_sum   'Cd2 H44 C48 N16 O12'
_cell_volume   1548.51157718
_cell_formula_units_Z   2
loop_
 _symmetry_equiv_pos_site_id
 _symmetry_equiv_pos_as_xyz
  1  'x, y, z'
loop_
 _atom_site_type_symbol
 _atom_site_label
 _atom_site_symmetry_multiplicity
 _atom_site_fract_x
 _atom_site_fract_y
 _atom_site_fract_z
 _atom_site_occupancy
 _atom_site_charge
Cd  Cd1  1  0.24743000  0.26586000  0.72577000  1.0 0.8681288319
Cd  Cd2  1  0.75257000  0.76586000  0.27423000  1.0 0.8681288319
H  H1  1  0.81170000  0.02470000  0.91960000  1.0 0.2904071765
H  H2  1  0.61520000  0.07370000  0.47330000  1.0 0.3024775641
H  H3  1  0.07780000  0.14360000  0.02370000  1.0 0.1221948559
H  H4  1  0.37390000  0.11840000  0.08220000  1.0 0.1149375768
H  H5  1  0.46230000  0.99280000  0.17660000  1.0 0.1295638886
H  H6  1  0.25610000  0.89560000  0.21950000  1.0 0.1221948559
H  H7  1  0.43750000  0.01030000  0.66160000  1.0 0.1221948559
H  H8  1  0.15070000  0.96040000  0.64110000  1.0 0.1221948559
H  H9  1  0.04410000  0.86380000  0.50770000  1.0 0.1295638886
H  H10  1  0.22290000  0.81260000  0.40150000  1.0 0.1295638886
H  H11  1  0.91520000  0.17650000  0.76800000  1.0 0.1610849144
H  H12  1  0.72920000  0.16990000  0.69580000  1.0 0.1679062503
H  H13  1  0.82800000  0.08210000  0.74020000  1.0 0.1610849144
H  H14  1  0.06040000  0.07920000  0.33590000  1.0 0.1679062503
H  H15  1  0.95480000  0.99930000  0.37470000  1.0 0.1610849144
H  H16  1  0.85390000  0.08530000  0.32600000  1.0 0.1679062503
H  H17  1  0.57840000  0.29440000  0.88710000  1.0 0.1679062503
H  H18  1  0.67790000  0.24680000  0.98820000  1.0 0.1679062503
H  H19  1  0.74800000  0.23660000  0.88230000  1.0 0.1610849144
H  H20  1  0.31980000  0.90550000  0.86990000  1.0 0.1679062503
H  H21  1  0.52340000  0.89960000  0.86790000  1.0 0.1610849144
H  H22  1  0.45690000  0.91700000  0.97370000  1.0 0.1679062503
H  H23  1  0.18830000  0.52470000  0.08040000  1.0 0.2904071765
H  H24  1  0.38480000  0.57370000  0.52670000  1.0 0.3024775641
H  H25  1  0.92220000  0.64360000  0.97630000  1.0 0.1221948559
H  H26  1  0.62610000  0.61840000  0.91780000  1.0 0.1149375768
H  H27  1  0.53770000  0.49280000  0.82340000  1.0 0.1295638886
H  H28  1  0.74390000  0.39560000  0.78050000  1.0 0.1221948559
H  H29  1  0.56250000  0.51030000  0.33840000  1.0 0.1221948559
H  H30  1  0.84930000  0.46040000  0.35890000  1.0 0.1221948559
H  H31  1  0.95590000  0.36380000  0.49230000  1.0 0.1295638886
H  H32  1  0.77710000  0.31260000  0.59850000  1.0 0.1295638886
H  H33  1  0.08480000  0.67650000  0.23200000  1.0 0.1610849144
H  H34  1  0.27080000  0.66990000  0.30420000  1.0 0.1679062503
H  H35  1  0.17200000  0.58210000  0.25980000  1.0 0.1610849144
H  H36  1  0.93960000  0.57920000  0.66410000  1.0 0.1679062503
H  H37  1  0.04520000  0.49930000  0.62530000  1.0 0.1610849144
H  H38  1  0.14610000  0.58530000  0.67400000  1.0 0.1679062503
H  H39  1  0.42160000  0.79440000  0.11290000  1.0 0.1679062503
H  H40  1  0.32210000  0.74680000  0.01180000  1.0 0.1679062503
H  H41  1  0.25200000  0.73660000  0.11770000  1.0 0.1610849144
H  H42  1  0.68020000  0.40550000  0.13010000  1.0 0.1679062503
H  H43  1  0.47660000  0.39960000  0.13210000  1.0 0.1610849144
H  H44  1  0.54310000  0.41700000  0.02630000  1.0 0.1679062503
C  C1  1  0.04400000  0.95990000  0.14780000  1.0 -0.0330854101
C  C2  1  0.99070000  0.03620000  0.09120000  1.0 -0.0492291951
C  C3  1  0.11380000  0.09340000  0.06490000  1.0 -0.1278817175
C  C4  1  0.29010000  0.07790000  0.09840000  1.0 -0.0691306783
C  C5  1  0.34220000  0.00430000  0.15460000  1.0 -0.0774385301
C  C6  1  0.21870000  0.94630000  0.17950000  1.0 -0.0925858175
C  C7  1  0.91270000  0.89410000  0.17340000  1.0 0.53949755
C  C8  1  0.80490000  0.06320000  0.05890000  1.0 0.450413044
C  C9  1  0.44100000  0.87850000  0.46510000  1.0 -0.0492291951
C  C10  1  0.50350000  0.93990000  0.54260000  1.0 -0.0492291951
C  C11  1  0.39490000  0.96990000  0.60840000  1.0 -0.1228508433
C  C12  1  0.22440000  0.94060000  0.59590000  1.0 -0.0492291951
C  C13  1  0.16170000  0.88260000  0.51740000  1.0 -0.0691306783
C  C14  1  0.26790000  0.85260000  0.45460000  1.0 -0.0925858175
C  C15  1  0.55480000  0.84370000  0.39550000  1.0 0.5324642615
C  C16  1  0.68770000  0.97270000  0.56230000  1.0 0.450413044
C  C17  1  0.92750000  0.13670000  0.62430000  1.0 0.3220331105
C  C18  1  0.84300000  0.14170000  0.71460000  1.0 -0.544438128
C  C19  1  0.98200000  0.10440000  0.47140000  1.0 0.3220331105
C  C20  1  0.96100000  0.06360000  0.36820000  1.0 -0.5303931577
C  C21  1  0.53470000  0.16300000  0.88900000  1.0 0.3024775641
C  C22  1  0.64390000  0.24180000  0.91370000  1.0 -0.5303931577
C  C23  1  0.43920000  0.02630000  0.88150000  1.0 0.3024775641
C  C24  1  0.43440000  0.92860000  0.89990000  1.0 -0.5303931577
C  C25  1  0.95600000  0.45990000  0.85220000  1.0 -0.0330854101
C  C26  1  0.00930000  0.53620000  0.90880000  1.0 -0.0492291951
C  C27  1  0.88620000  0.59340000  0.93510000  1.0 -0.1278817175
C  C28  1  0.70990000  0.57790000  0.90160000  1.0 -0.0691306783
C  C29  1  0.65780000  0.50430000  0.84540000  1.0 -0.0774385301
C  C30  1  0.78130000  0.44630000  0.82050000  1.0 -0.0925858175
C  C31  1  0.08730000  0.39410000  0.82660000  1.0 0.53949755
C  C32  1  0.19510000  0.56320000  0.94110000  1.0 0.450413044
C  C33  1  0.55900000  0.37850000  0.53490000  1.0 -0.0492291951
C  C34  1  0.49650000  0.43990000  0.45740000  1.0 -0.044954863
C  C35  1  0.60510000  0.46990000  0.39160000  1.0 -0.1228508433
C  C36  1  0.77560000  0.44060000  0.40410000  1.0 -0.0492291951
C  C37  1  0.83830000  0.38260000  0.48260000  1.0 -0.0691306783
C  C38  1  0.73210000  0.35260000  0.54540000  1.0 -0.0925858175
C  C39  1  0.44520000  0.34370000  0.60450000  1.0 0.5324642615
C  C40  1  0.31230000  0.47270000  0.43770000  1.0 0.450413044
C  C41  1  0.07250000  0.63670000  0.37570000  1.0 0.3220331105
C  C42  1  0.15700000  0.64170000  0.28540000  1.0 -0.5450630827
C  C43  1  0.01800000  0.60440000  0.52860000  1.0 0.3220331105
C  C44  1  0.03900000  0.56360000  0.63180000  1.0 -0.5303931577
C  C45  1  0.46530000  0.66300000  0.11100000  1.0 0.3024775641
C  C46  1  0.35610000  0.74180000  0.08630000  1.0 -0.5303931577
C  C47  1  0.56080000  0.52630000  0.11850000  1.0 0.3024775641
C  C48  1  0.56560000  0.42860000  0.10010000  1.0 -0.5303931577
N  N1  1  0.74530000  0.05080000  0.95780000  1.0 -0.324044366
N  N2  1  0.58020000  0.07900000  0.91380000  1.0 0.0118560842
N  N3  1  0.37200000  0.16250000  0.84010000  1.0 -0.2630229188
N  N4  1  0.31210000  0.07580000  0.83560000  1.0 -0.2862519665
N  N5  1  0.70340000  0.05100000  0.51550000  1.0 -0.324044366
N  N6  1  0.86240000  0.09450000  0.53590000  1.0 0.0206118947
N  N7  1  0.07960000  0.17130000  0.61510000  1.0 -0.2749266369
N  N8  1  0.11400000  0.15000000  0.51710000  1.0 -0.2803421212
N  N9  1  0.25470000  0.55080000  0.04220000  1.0 -0.324044366
N  N10  1  0.41980000  0.57900000  0.08620000  1.0 0.0118560842
N  N11  1  0.62800000  0.66250000  0.15990000  1.0 -0.2630229188
N  N12  1  0.68790000  0.57580000  0.16440000  1.0 -0.2862519665
N  N13  1  0.29660000  0.55100000  0.48450000  1.0 -0.324044366
N  N14  1  0.13760000  0.59450000  0.46410000  1.0 0.0206118947
N  N15  1  0.92040000  0.67130000  0.38490000  1.0 -0.2803421212
N  N16  1  0.88600000  0.65000000  0.48290000  1.0 -0.2862519665
O  O1  1  0.75730000  0.90230000  0.14170000  1.0 -0.5068545384
O  O2  1  0.97900000  0.83010000  0.22920000  1.0 -0.5303931577
O  O3  1  0.72170000  0.10340000  0.11380000  1.0 -0.4423820419
O  O4  1  0.70950000  0.86690000  0.40680000  1.0 -0.5004462941
O  O5  1  0.49330000  0.78800000  0.32840000  1.0 -0.5197479768
O  O6  1  0.80390000  0.93900000  0.62120000  1.0 -0.4148395998
O  O7  1  0.24270000  0.40230000  0.85830000  1.0 -0.5068545384
O  O8  1  0.02100000  0.33010000  0.77080000  1.0 -0.5303931577
O  O9  1  0.27830000  0.60340000  0.88620000  1.0 -0.4423820419
O  O10  1  0.29050000  0.36690000  0.59320000  1.0 -0.5004462941
O  O11  1  0.50670000  0.28800000  0.67160000  1.0 -0.5197479768
O  O12  1  0.19610000  0.43900000  0.37880000  1.0 -0.4150595112
