# DDEC6 charges by PACMAN v1.1 (https://github.com/mtap-research/PACMAN-charge/)
data_XEFGEU04_ion_pacman
_symmetry_space_group_name_H-M   'P 1'
_cell_length_a   10.94100000
_cell_length_b   10.94100000
_cell_length_c   20.89300000
_cell_angle_alpha   90.00000000
_cell_angle_beta   90.00000000
_cell_angle_gamma   90.00000000
_symmetry_Int_Tables_number   1
_chemical_formula_structural   CuSiH20C20N8(OF3)2
_chemical_formula_sum   'Cu4 Si4 H80 C80 N32 O8 F24'
_cell_volume   2501.00661453
_cell_formula_units_Z   4
loop_
 _symmetry_equiv_pos_site_id
 _symmetry_equiv_pos_as_xyz
  1  'x, y, z'
loop_
 _atom_site_type_symbol
 _atom_site_label
 _atom_site_symmetry_multiplicity
 _atom_site_fract_x
 _atom_site_fract_y
 _atom_site_fract_z
 _atom_site_occupancy
 _atom_site_charge
Cu  Cu1  1  0.00000000  0.00000000  0.25000000  1.0 0.6777708607
Cu  Cu2  1  0.50000000  0.50000000  0.75000000  1.0 0.6777708607
Cu  Cu3  1  0.50000000  0.50000000  0.25000000  1.0 0.6777708607
Cu  Cu4  1  0.00000000  0.00000000  0.75000000  1.0 0.6777708607
Si  Si1  1  0.00000000  0.50000000  0.79353000  1.0 1.7193141358
Si  Si2  1  0.50000000  0.00000000  0.70647000  1.0 1.7193141358
Si  Si3  1  0.50000000  0.00000000  0.20647000  1.0 1.7193141358
Si  Si4  1  0.00000000  0.50000000  0.29353000  1.0 1.7193141358
H  H1  1  0.14810000  0.22050000  0.27770000  1.0 0.3841124551
H  H2  1  0.85190000  0.77950000  0.27770000  1.0 0.3841124551
H  H3  1  0.77950000  0.85190000  0.22230000  1.0 0.3841124551
H  H4  1  0.22050000  0.14810000  0.22230000  1.0 0.3841124551
H  H5  1  0.35190000  0.27950000  0.72230000  1.0 0.3841124551
H  H6  1  0.64810000  0.72050000  0.72230000  1.0 0.3841124551
H  H7  1  0.72050000  0.64810000  0.77770000  1.0 0.3841124551
H  H8  1  0.27950000  0.35190000  0.77770000  1.0 0.3841124551
H  H9  1  0.05790000  0.74640000  0.21010000  1.0 0.1114094231
H  H10  1  0.94210000  0.25360000  0.21010000  1.0 0.1114094231
H  H11  1  0.25360000  0.94210000  0.28990000  1.0 0.1114094231
H  H12  1  0.74640000  0.05790000  0.28990000  1.0 0.1114094231
H  H13  1  0.44210000  0.75360000  0.78990000  1.0 0.1114094231
H  H14  1  0.55790000  0.24640000  0.78990000  1.0 0.1114094231
H  H15  1  0.24640000  0.55790000  0.71010000  1.0 0.1114094231
H  H16  1  0.75360000  0.44210000  0.71010000  1.0 0.1114094231
H  H17  1  0.13970000  0.64070000  0.12580000  1.0 0.147469409
H  H18  1  0.86030000  0.35930000  0.12580000  1.0 0.147469409
H  H19  1  0.35930000  0.86030000  0.37420000  1.0 0.147469409
H  H20  1  0.64070000  0.13970000  0.37420000  1.0 0.147469409
H  H21  1  0.36030000  0.85930000  0.87420000  1.0 0.147469409
H  H22  1  0.63970000  0.14070000  0.87420000  1.0 0.147469409
H  H23  1  0.14070000  0.63970000  0.62580000  1.0 0.147469409
H  H24  1  0.85930000  0.36030000  0.62580000  1.0 0.147469409
H  H25  1  0.23630000  0.96380000  0.04770000  1.0 0.1387190448
H  H26  1  0.76370000  0.03620000  0.04770000  1.0 0.1387190448
H  H27  1  0.03620000  0.76370000  0.45230000  1.0 0.1387190448
H  H28  1  0.96380000  0.23630000  0.45230000  1.0 0.1387190448
H  H29  1  0.26370000  0.53620000  0.95230000  1.0 0.1387190448
H  H30  1  0.73630000  0.46380000  0.95230000  1.0 0.1387190448
H  H31  1  0.46380000  0.73630000  0.54770000  1.0 0.1387190448
H  H32  1  0.53620000  0.26370000  0.54770000  1.0 0.1387190448
H  H33  1  0.14720000  0.05860000  0.13370000  1.0 0.1114094231
H  H34  1  0.85280000  0.94140000  0.13370000  1.0 0.1114094231
H  H35  1  0.94140000  0.85280000  0.36630000  1.0 0.1114094231
H  H36  1  0.05860000  0.14720000  0.36630000  1.0 0.1114094231
H  H37  1  0.35280000  0.44140000  0.86630000  1.0 0.1114094231
H  H38  1  0.64720000  0.55860000  0.86630000  1.0 0.1114094231
H  H39  1  0.55860000  0.64720000  0.63370000  1.0 0.1114094231
H  H40  1  0.44140000  0.35280000  0.63370000  1.0 0.1114094231
H  H41  1  0.72050000  0.35190000  0.27770000  1.0 0.3841124551
H  H42  1  0.27950000  0.64810000  0.27770000  1.0 0.3841124551
H  H43  1  0.35190000  0.72050000  0.22230000  1.0 0.3841124551
H  H44  1  0.64810000  0.27950000  0.22230000  1.0 0.3841124551
H  H45  1  0.77950000  0.14810000  0.72230000  1.0 0.3841124551
H  H46  1  0.22050000  0.85190000  0.72230000  1.0 0.3841124551
H  H47  1  0.14810000  0.77950000  0.77770000  1.0 0.3841124551
H  H48  1  0.85190000  0.22050000  0.77770000  1.0 0.3841124551
H  H49  1  0.24640000  0.44210000  0.21010000  1.0 0.1114094231
H  H50  1  0.75360000  0.55790000  0.21010000  1.0 0.1114094231
H  H51  1  0.44210000  0.24640000  0.28990000  1.0 0.1114094231
H  H52  1  0.55790000  0.75360000  0.28990000  1.0 0.1114094231
H  H53  1  0.25360000  0.05790000  0.78990000  1.0 0.1114094231
H  H54  1  0.74640000  0.94210000  0.78990000  1.0 0.1114094231
H  H55  1  0.05790000  0.25360000  0.71010000  1.0 0.1114094231
H  H56  1  0.94210000  0.74640000  0.71010000  1.0 0.1114094231
H  H57  1  0.14070000  0.36030000  0.12580000  1.0 0.147469409
H  H58  1  0.85930000  0.63970000  0.12580000  1.0 0.147469409
H  H59  1  0.36030000  0.14070000  0.37420000  1.0 0.147469409
H  H60  1  0.63970000  0.85930000  0.37420000  1.0 0.147469409
H  H61  1  0.35930000  0.13970000  0.87420000  1.0 0.147469409
H  H62  1  0.64070000  0.86030000  0.87420000  1.0 0.147469409
H  H63  1  0.13970000  0.35930000  0.62580000  1.0 0.147469409
H  H64  1  0.86030000  0.64070000  0.62580000  1.0 0.147469409
H  H65  1  0.46380000  0.26370000  0.04770000  1.0 0.1387190448
H  H66  1  0.53620000  0.73630000  0.04770000  1.0 0.1387190448
H  H67  1  0.26370000  0.46380000  0.45230000  1.0 0.1387190448
H  H68  1  0.73630000  0.53620000  0.45230000  1.0 0.1387190448
H  H69  1  0.03620000  0.23630000  0.95230000  1.0 0.1387190448
H  H70  1  0.96380000  0.76370000  0.95230000  1.0 0.1387190448
H  H71  1  0.23630000  0.03620000  0.54770000  1.0 0.1387190448
H  H72  1  0.76370000  0.96380000  0.54770000  1.0 0.1387190448
H  H73  1  0.55860000  0.35280000  0.13370000  1.0 0.1114094231
H  H74  1  0.44140000  0.64720000  0.13370000  1.0 0.1114094231
H  H75  1  0.35280000  0.55860000  0.36630000  1.0 0.1114094231
H  H76  1  0.64720000  0.44140000  0.36630000  1.0 0.1114094231
H  H77  1  0.94140000  0.14720000  0.86630000  1.0 0.1114094231
H  H78  1  0.05860000  0.85280000  0.86630000  1.0 0.1114094231
H  H79  1  0.14720000  0.94140000  0.63370000  1.0 0.1114094231
H  H80  1  0.85280000  0.05860000  0.63370000  1.0 0.1114094231
C  C1  1  0.09340000  0.78990000  0.17667000  1.0 0.097941695
C  C2  1  0.90660000  0.21010000  0.17667000  1.0 0.097941695
C  C3  1  0.21010000  0.90660000  0.32333000  1.0 0.097941695
C  C4  1  0.78990000  0.09340000  0.32333000  1.0 0.097941695
C  C5  1  0.40660000  0.71010000  0.82333000  1.0 0.097941695
C  C6  1  0.59340000  0.28990000  0.82333000  1.0 0.097941695
C  C7  1  0.28990000  0.59340000  0.67667000  1.0 0.097941695
C  C8  1  0.71010000  0.40660000  0.67667000  1.0 0.097941695
C  C9  1  0.14190000  0.72570000  0.12651000  1.0 -0.1886276973
C  C10  1  0.85810000  0.27430000  0.12651000  1.0 -0.1886276973
C  C11  1  0.27430000  0.85810000  0.37349000  1.0 -0.1886276973
C  C12  1  0.72570000  0.14190000  0.37349000  1.0 -0.1886276973
C  C13  1  0.35810000  0.77430000  0.87349000  1.0 -0.1886276973
C  C14  1  0.64190000  0.22570000  0.87349000  1.0 -0.1886276973
C  C15  1  0.22570000  0.64190000  0.62651000  1.0 -0.1886276973
C  C16  1  0.77430000  0.35810000  0.62651000  1.0 -0.1886276973
C  C17  1  0.19910000  0.91810000  0.07980000  1.0 -0.1766246928
C  C18  1  0.80090000  0.08190000  0.07980000  1.0 -0.1766246928
C  C19  1  0.08190000  0.80090000  0.42020000  1.0 -0.1766246928
C  C20  1  0.91810000  0.19910000  0.42020000  1.0 -0.1766246928
C  C21  1  0.30090000  0.58190000  0.92020000  1.0 -0.1766246928
C  C22  1  0.69910000  0.41810000  0.92020000  1.0 -0.1766246928
C  C23  1  0.41810000  0.69910000  0.57980000  1.0 -0.1766246928
C  C24  1  0.58190000  0.30090000  0.57980000  1.0 -0.1766246928
C  C25  1  0.14670000  0.97360000  0.13180000  1.0 0.0930008555
C  C26  1  0.85330000  0.02640000  0.13180000  1.0 0.0930008555
C  C27  1  0.02640000  0.85330000  0.36820000  1.0 0.0930008555
C  C28  1  0.97360000  0.14670000  0.36820000  1.0 0.0930008555
C  C29  1  0.35330000  0.52640000  0.86820000  1.0 0.0930008555
C  C30  1  0.64670000  0.47360000  0.86820000  1.0 0.0930008555
C  C31  1  0.47360000  0.64670000  0.63180000  1.0 0.0930008555
C  C32  1  0.52640000  0.35330000  0.63180000  1.0 0.0930008555
C  C33  1  0.19470000  0.79170000  0.07650000  1.0 0.1932249593
C  C34  1  0.80530000  0.20830000  0.07650000  1.0 0.1932249593
C  C35  1  0.20830000  0.80530000  0.42350000  1.0 0.1932249593
C  C36  1  0.79170000  0.19470000  0.42350000  1.0 0.1932249593
C  C37  1  0.30530000  0.70830000  0.92350000  1.0 0.1932249593
C  C38  1  0.69470000  0.29170000  0.92350000  1.0 0.1932249593
C  C39  1  0.29170000  0.69470000  0.57650000  1.0 0.1932249593
C  C40  1  0.70830000  0.30530000  0.57650000  1.0 0.1932249593
C  C41  1  0.28990000  0.40660000  0.17667000  1.0 0.097941695
C  C42  1  0.71010000  0.59340000  0.17667000  1.0 0.097941695
C  C43  1  0.40660000  0.28990000  0.32333000  1.0 0.097941695
C  C44  1  0.59340000  0.71010000  0.32333000  1.0 0.097941695
C  C45  1  0.21010000  0.09340000  0.82333000  1.0 0.097941695
C  C46  1  0.78990000  0.90660000  0.82333000  1.0 0.097941695
C  C47  1  0.09340000  0.21010000  0.67667000  1.0 0.097941695
C  C48  1  0.90660000  0.78990000  0.67667000  1.0 0.097941695
C  C49  1  0.22570000  0.35810000  0.12651000  1.0 -0.1886276973
C  C50  1  0.77430000  0.64190000  0.12651000  1.0 -0.1886276973
C  C51  1  0.35810000  0.22570000  0.37349000  1.0 -0.1886276973
C  C52  1  0.64190000  0.77430000  0.37349000  1.0 -0.1886276973
C  C53  1  0.27430000  0.14190000  0.87349000  1.0 -0.1886276973
C  C54  1  0.72570000  0.85810000  0.87349000  1.0 -0.1886276973
C  C55  1  0.14190000  0.27430000  0.62651000  1.0 -0.1886276973
C  C56  1  0.85810000  0.72570000  0.62651000  1.0 -0.1886276973
C  C57  1  0.41810000  0.30090000  0.07980000  1.0 -0.1766246928
C  C58  1  0.58190000  0.69910000  0.07980000  1.0 -0.1766246928
C  C59  1  0.30090000  0.41810000  0.42020000  1.0 -0.1766246928
C  C60  1  0.69910000  0.58190000  0.42020000  1.0 -0.1766246928
C  C61  1  0.08190000  0.19910000  0.92020000  1.0 -0.1766246928
C  C62  1  0.91810000  0.80090000  0.92020000  1.0 -0.1766246928
C  C63  1  0.19910000  0.08190000  0.57980000  1.0 -0.1766246928
C  C64  1  0.80090000  0.91810000  0.57980000  1.0 -0.1766246928
C  C65  1  0.47360000  0.35330000  0.13180000  1.0 0.0930008555
C  C66  1  0.52640000  0.64670000  0.13180000  1.0 0.0930008555
C  C67  1  0.35330000  0.47360000  0.36820000  1.0 0.0930008555
C  C68  1  0.64670000  0.52640000  0.36820000  1.0 0.0930008555
C  C69  1  0.02640000  0.14670000  0.86820000  1.0 0.0930008555
C  C70  1  0.97360000  0.85330000  0.86820000  1.0 0.0930008555
C  C71  1  0.14670000  0.02640000  0.63180000  1.0 0.0930008555
C  C72  1  0.85330000  0.97360000  0.63180000  1.0 0.0930008555
C  C73  1  0.29170000  0.30530000  0.07650000  1.0 0.1932249593
C  C74  1  0.70830000  0.69470000  0.07650000  1.0 0.1932249593
C  C75  1  0.30530000  0.29170000  0.42350000  1.0 0.1932249593
C  C76  1  0.69470000  0.70830000  0.42350000  1.0 0.1932249593
C  C77  1  0.20830000  0.19470000  0.92350000  1.0 0.1932249593
C  C78  1  0.79170000  0.80530000  0.92350000  1.0 0.1932249593
C  C79  1  0.19470000  0.20830000  0.57650000  1.0 0.1932249593
C  C80  1  0.80530000  0.79170000  0.57650000  1.0 0.1932249593
N  N1  1  0.09460000  0.91170000  0.18002000  1.0 -0.2248022778
N  N2  1  0.90540000  0.08830000  0.18002000  1.0 -0.2248022778
N  N3  1  0.08830000  0.90540000  0.31998000  1.0 -0.2248022778
N  N4  1  0.91170000  0.09460000  0.31998000  1.0 -0.2248022778
N  N5  1  0.40540000  0.58830000  0.81998000  1.0 -0.2248022778
N  N6  1  0.59460000  0.41170000  0.81998000  1.0 -0.2248022778
N  N7  1  0.41170000  0.59460000  0.68002000  1.0 -0.2248022778
N  N8  1  0.58830000  0.40540000  0.68002000  1.0 -0.2248022778
N  N9  1  0.24590000  0.72170000  0.02523000  1.0 -0.1207578283
N  N10  1  0.75410000  0.27830000  0.02523000  1.0 -0.1207578283
N  N11  1  0.27830000  0.75410000  0.47477000  1.0 -0.1207578283
N  N12  1  0.72170000  0.24590000  0.47477000  1.0 -0.1207578283
N  N13  1  0.25410000  0.77830000  0.97477000  1.0 -0.1207578283
N  N14  1  0.74590000  0.22170000  0.97477000  1.0 -0.1207578283
N  N15  1  0.22170000  0.74590000  0.52523000  1.0 -0.1207578283
N  N16  1  0.77830000  0.25410000  0.52523000  1.0 -0.1207578283
N  N17  1  0.41170000  0.40540000  0.18002000  1.0 -0.2248022778
N  N18  1  0.58830000  0.59460000  0.18002000  1.0 -0.2248022778
N  N19  1  0.40540000  0.41170000  0.31998000  1.0 -0.2248022778
N  N20  1  0.59460000  0.58830000  0.31998000  1.0 -0.2248022778
N  N21  1  0.08830000  0.09460000  0.81998000  1.0 -0.2248022778
N  N22  1  0.91170000  0.90540000  0.81998000  1.0 -0.2248022778
N  N23  1  0.09460000  0.08830000  0.68002000  1.0 -0.2248022778
N  N24  1  0.90540000  0.91170000  0.68002000  1.0 -0.2248022778
N  N25  1  0.22170000  0.25410000  0.02523000  1.0 -0.1207578283
N  N26  1  0.77830000  0.74590000  0.02523000  1.0 -0.1207578283
N  N27  1  0.25410000  0.22170000  0.47477000  1.0 -0.1207578283
N  N28  1  0.74590000  0.77830000  0.47477000  1.0 -0.1207578283
N  N29  1  0.27830000  0.24590000  0.97477000  1.0 -0.1207578283
N  N30  1  0.72170000  0.75410000  0.97477000  1.0 -0.1207578283
N  N31  1  0.24590000  0.27830000  0.52523000  1.0 -0.1207578283
N  N32  1  0.75410000  0.72170000  0.52523000  1.0 -0.1207578283
O  O1  1  0.15420000  0.15420000  0.25000000  1.0 -0.7989034278
O  O2  1  0.84580000  0.84580000  0.25000000  1.0 -0.7989034278
O  O3  1  0.34580000  0.34580000  0.75000000  1.0 -0.7989034278
O  O4  1  0.65420000  0.65420000  0.75000000  1.0 -0.7989034278
O  O5  1  0.65420000  0.34580000  0.25000000  1.0 -0.7989034278
O  O6  1  0.34580000  0.65420000  0.25000000  1.0 -0.7989034278
O  O7  1  0.84580000  0.15420000  0.75000000  1.0 -0.7989034278
O  O8  1  0.15420000  0.84580000  0.75000000  1.0 -0.7989034278
F  F1  1  0.00000000  0.50000000  0.87330000  1.0 -0.5214274747
F  F2  1  0.00000000  0.50000000  0.71330000  1.0 -0.5269437058
F  F3  1  0.87960000  0.59550000  0.79295000  1.0 -0.5042015088
F  F4  1  0.12040000  0.40450000  0.79295000  1.0 -0.5042015088
F  F5  1  0.09550000  0.62040000  0.79295000  1.0 -0.5042015088
F  F6  1  0.90450000  0.37960000  0.79295000  1.0 -0.5042015088
F  F7  1  0.50000000  0.00000000  0.62670000  1.0 -0.5214274747
F  F8  1  0.50000000  0.00000000  0.78670000  1.0 -0.5269437058
F  F9  1  0.62040000  0.09550000  0.70705000  1.0 -0.5042015088
F  F10  1  0.37960000  0.90450000  0.70705000  1.0 -0.5042015088
F  F11  1  0.40450000  0.12040000  0.70705000  1.0 -0.5042015088
F  F12  1  0.59550000  0.87960000  0.70705000  1.0 -0.5042015088
F  F13  1  0.50000000  0.00000000  0.12670000  1.0 -0.5214274747
F  F14  1  0.50000000  0.00000000  0.28670000  1.0 -0.5269437058
F  F15  1  0.62040000  0.90450000  0.20705000  1.0 -0.5042015088
F  F16  1  0.37960000  0.09550000  0.20705000  1.0 -0.5042015088
F  F17  1  0.40450000  0.87960000  0.20705000  1.0 -0.5042015088
F  F18  1  0.59550000  0.12040000  0.20705000  1.0 -0.5042015088
F  F19  1  0.00000000  0.50000000  0.37330000  1.0 -0.5214274747
F  F20  1  0.00000000  0.50000000  0.21330000  1.0 -0.5269437058
F  F21  1  0.87960000  0.40450000  0.29295000  1.0 -0.5042015088
F  F22  1  0.12040000  0.59550000  0.29295000  1.0 -0.5042015088
F  F23  1  0.09550000  0.37960000  0.29295000  1.0 -0.5042015088
F  F24  1  0.90450000  0.62040000  0.29295000  1.0 -0.5042015088
