# DDEC6 charges by PACMAN v1.1 (https://github.com/mtap-research/PACMAN-charge/)
data_XEFGEU06_ion_pacman
_symmetry_space_group_name_H-M   'P 1'
_cell_length_a   10.92500000
_cell_length_b   10.92500000
_cell_length_c   20.90900000
_cell_angle_alpha   90.00000000
_cell_angle_beta   90.00000000
_cell_angle_gamma   90.00000000
_symmetry_Int_Tables_number   1
_chemical_formula_structural   CuSiH20C20N8(OF3)2
_chemical_formula_sum   'Cu4 Si4 H80 C80 N32 O8 F24'
_cell_volume   2495.60676313
_cell_formula_units_Z   4
loop_
 _symmetry_equiv_pos_site_id
 _symmetry_equiv_pos_as_xyz
  1  'x, y, z'
loop_
 _atom_site_type_symbol
 _atom_site_label
 _atom_site_symmetry_multiplicity
 _atom_site_fract_x
 _atom_site_fract_y
 _atom_site_fract_z
 _atom_site_occupancy
 _atom_site_charge
Cu  Cu1  1  0.00000000  0.00000000  0.75000000  1.0 0.6671642773
Cu  Cu2  1  0.50000000  0.50000000  0.25000000  1.0 0.6671642773
Cu  Cu3  1  0.50000000  0.50000000  0.75000000  1.0 0.6671642773
Cu  Cu4  1  0.00000000  0.00000000  0.25000000  1.0 0.6671642773
Si  Si1  1  0.50000000  0.00000000  0.20589000  1.0 1.7190400177
Si  Si2  1  0.00000000  0.50000000  0.29411000  1.0 1.7190400177
Si  Si3  1  0.00000000  0.50000000  0.79411000  1.0 1.7190400177
Si  Si4  1  0.50000000  0.00000000  0.70589000  1.0 1.7190400177
H  H1  1  0.22060000  0.85190000  0.72230000  1.0 0.3836037629
H  H2  1  0.77940000  0.14810000  0.72230000  1.0 0.3836037629
H  H3  1  0.14810000  0.77940000  0.77770000  1.0 0.3836037629
H  H4  1  0.85190000  0.22060000  0.77770000  1.0 0.3836037629
H  H5  1  0.27940000  0.64810000  0.27770000  1.0 0.3836037629
H  H6  1  0.72060000  0.35190000  0.27770000  1.0 0.3836037629
H  H7  1  0.35190000  0.72060000  0.22230000  1.0 0.3836037629
H  H8  1  0.64810000  0.27940000  0.22230000  1.0 0.3836037629
H  H9  1  0.14050000  0.35880000  0.62530000  1.0 0.1510738992
H  H10  1  0.85950000  0.64120000  0.62530000  1.0 0.1510738992
H  H11  1  0.64120000  0.85950000  0.87470000  1.0 0.1510738992
H  H12  1  0.35880000  0.14050000  0.87470000  1.0 0.1510738992
H  H13  1  0.35950000  0.14120000  0.37470000  1.0 0.1510738992
H  H14  1  0.64050000  0.85880000  0.37470000  1.0 0.1510738992
H  H15  1  0.85880000  0.64050000  0.12530000  1.0 0.1510738992
H  H16  1  0.14120000  0.35950000  0.12530000  1.0 0.1510738992
H  H17  1  0.05690000  0.25350000  0.71020000  1.0 0.1156520509
H  H18  1  0.94310000  0.74650000  0.71020000  1.0 0.1156520509
H  H19  1  0.74650000  0.94310000  0.78980000  1.0 0.1156520509
H  H20  1  0.25350000  0.05690000  0.78980000  1.0 0.1156520509
H  H21  1  0.44310000  0.24650000  0.28980000  1.0 0.1156520509
H  H22  1  0.55690000  0.75350000  0.28980000  1.0 0.1156520509
H  H23  1  0.75350000  0.55690000  0.21020000  1.0 0.1156520509
H  H24  1  0.24650000  0.44310000  0.21020000  1.0 0.1156520509
H  H25  1  0.14680000  0.94030000  0.63380000  1.0 0.1096738987
H  H26  1  0.85320000  0.05970000  0.63380000  1.0 0.1096738987
H  H27  1  0.05970000  0.85320000  0.86620000  1.0 0.1096738987
H  H28  1  0.94030000  0.14680000  0.86620000  1.0 0.1096738987
H  H29  1  0.35320000  0.55970000  0.36620000  1.0 0.1096738987
H  H30  1  0.64680000  0.44030000  0.36620000  1.0 0.1096738987
H  H31  1  0.44030000  0.64680000  0.13380000  1.0 0.1096738987
H  H32  1  0.55970000  0.35320000  0.13380000  1.0 0.1096738987
H  H33  1  0.23570000  0.03670000  0.54770000  1.0 0.1422063831
H  H34  1  0.76430000  0.96330000  0.54770000  1.0 0.1422063831
H  H35  1  0.96330000  0.76430000  0.95230000  1.0 0.1422063831
H  H36  1  0.03670000  0.23570000  0.95230000  1.0 0.1422063831
H  H37  1  0.26430000  0.46330000  0.45230000  1.0 0.1422063831
H  H38  1  0.73570000  0.53670000  0.45230000  1.0 0.1422063831
H  H39  1  0.53670000  0.73570000  0.04770000  1.0 0.1422063831
H  H40  1  0.46330000  0.26430000  0.04770000  1.0 0.1422063831
H  H41  1  0.35190000  0.27940000  0.72230000  1.0 0.3836037629
H  H42  1  0.64810000  0.72060000  0.72230000  1.0 0.3836037629
H  H43  1  0.27940000  0.35190000  0.77770000  1.0 0.3836037629
H  H44  1  0.72060000  0.64810000  0.77770000  1.0 0.3836037629
H  H45  1  0.14810000  0.22060000  0.27770000  1.0 0.3836037629
H  H46  1  0.85190000  0.77940000  0.27770000  1.0 0.3836037629
H  H47  1  0.22060000  0.14810000  0.22230000  1.0 0.3836037629
H  H48  1  0.77940000  0.85190000  0.22230000  1.0 0.3836037629
H  H49  1  0.85880000  0.35950000  0.62530000  1.0 0.1510738992
H  H50  1  0.14120000  0.64050000  0.62530000  1.0 0.1510738992
H  H51  1  0.35950000  0.85880000  0.87470000  1.0 0.1510738992
H  H52  1  0.64050000  0.14120000  0.87470000  1.0 0.1510738992
H  H53  1  0.64120000  0.14050000  0.37470000  1.0 0.1510738992
H  H54  1  0.35880000  0.85950000  0.37470000  1.0 0.1510738992
H  H55  1  0.14050000  0.64120000  0.12530000  1.0 0.1510738992
H  H56  1  0.85950000  0.35880000  0.12530000  1.0 0.1510738992
H  H57  1  0.75350000  0.44310000  0.71020000  1.0 0.1156520509
H  H58  1  0.24650000  0.55690000  0.71020000  1.0 0.1156520509
H  H59  1  0.44310000  0.75350000  0.78980000  1.0 0.1156520509
H  H60  1  0.55690000  0.24650000  0.78980000  1.0 0.1156520509
H  H61  1  0.74650000  0.05690000  0.28980000  1.0 0.1156520509
H  H62  1  0.25350000  0.94310000  0.28980000  1.0 0.1156520509
H  H63  1  0.05690000  0.74650000  0.21020000  1.0 0.1156520509
H  H64  1  0.94310000  0.25350000  0.21020000  1.0 0.1156520509
H  H65  1  0.44030000  0.35320000  0.63380000  1.0 0.1096738987
H  H66  1  0.55970000  0.64680000  0.63380000  1.0 0.1096738987
H  H67  1  0.35320000  0.44030000  0.86620000  1.0 0.1096738987
H  H68  1  0.64680000  0.55970000  0.86620000  1.0 0.1096738987
H  H69  1  0.05970000  0.14680000  0.36620000  1.0 0.1096738987
H  H70  1  0.94030000  0.85320000  0.36620000  1.0 0.1096738987
H  H71  1  0.14680000  0.05970000  0.13380000  1.0 0.1096738987
H  H72  1  0.85320000  0.94030000  0.13380000  1.0 0.1096738987
H  H73  1  0.53670000  0.26430000  0.54770000  1.0 0.1422063831
H  H74  1  0.46330000  0.73570000  0.54770000  1.0 0.1422063831
H  H75  1  0.26430000  0.53670000  0.95230000  1.0 0.1422063831
H  H76  1  0.73570000  0.46330000  0.95230000  1.0 0.1422063831
H  H77  1  0.96330000  0.23570000  0.45230000  1.0 0.1422063831
H  H78  1  0.03670000  0.76430000  0.45230000  1.0 0.1422063831
H  H79  1  0.23570000  0.96330000  0.04770000  1.0 0.1422063831
H  H80  1  0.76430000  0.03670000  0.04770000  1.0 0.1422063831
C  C1  1  0.14230000  0.27370000  0.62618000  1.0 -0.1855829181
C  C2  1  0.85770000  0.72630000  0.62618000  1.0 -0.1855829181
C  C3  1  0.72630000  0.85770000  0.87382000  1.0 -0.1855829181
C  C4  1  0.27370000  0.14230000  0.87382000  1.0 -0.1855829181
C  C5  1  0.35770000  0.22630000  0.37382000  1.0 -0.1855829181
C  C6  1  0.64230000  0.77370000  0.37382000  1.0 -0.1855829181
C  C7  1  0.77370000  0.64230000  0.12618000  1.0 -0.1855829181
C  C8  1  0.22630000  0.35770000  0.12618000  1.0 -0.1855829181
C  C9  1  0.09290000  0.20990000  0.67697000  1.0 0.0971501898
C  C10  1  0.90710000  0.79010000  0.67697000  1.0 0.0971501898
C  C11  1  0.79010000  0.90710000  0.82303000  1.0 0.0971501898
C  C12  1  0.20990000  0.09290000  0.82303000  1.0 0.0971501898
C  C13  1  0.40710000  0.29010000  0.32303000  1.0 0.0971501898
C  C14  1  0.59290000  0.70990000  0.32303000  1.0 0.0971501898
C  C15  1  0.70990000  0.59290000  0.17697000  1.0 0.0971501898
C  C16  1  0.29010000  0.40710000  0.17697000  1.0 0.0971501898
C  C17  1  0.14630000  0.02530000  0.63196000  1.0 0.0870390149
C  C18  1  0.85370000  0.97470000  0.63196000  1.0 0.0870390149
C  C19  1  0.97470000  0.85370000  0.86804000  1.0 0.0870390149
C  C20  1  0.02530000  0.14630000  0.86804000  1.0 0.0870390149
C  C21  1  0.35370000  0.47470000  0.36804000  1.0 0.0870390149
C  C22  1  0.64630000  0.52530000  0.36804000  1.0 0.0870390149
C  C23  1  0.52530000  0.64630000  0.13196000  1.0 0.0870390149
C  C24  1  0.47470000  0.35370000  0.13196000  1.0 0.0870390149
C  C25  1  0.19850000  0.08230000  0.57993000  1.0 -0.175263632
C  C26  1  0.80150000  0.91770000  0.57993000  1.0 -0.175263632
C  C27  1  0.91770000  0.80150000  0.92007000  1.0 -0.175263632
C  C28  1  0.08230000  0.19850000  0.92007000  1.0 -0.175263632
C  C29  1  0.30150000  0.41770000  0.42007000  1.0 -0.175263632
C  C30  1  0.69850000  0.58230000  0.42007000  1.0 -0.175263632
C  C31  1  0.58230000  0.69850000  0.07993000  1.0 -0.175263632
C  C32  1  0.41770000  0.30150000  0.07993000  1.0 -0.175263632
C  C33  1  0.19450000  0.20820000  0.57658000  1.0 0.1883867793
C  C34  1  0.80550000  0.79180000  0.57658000  1.0 0.1883867793
C  C35  1  0.79180000  0.80550000  0.92342000  1.0 0.1883867793
C  C36  1  0.20820000  0.19450000  0.92342000  1.0 0.1883867793
C  C37  1  0.30550000  0.29180000  0.42342000  1.0 0.1883867793
C  C38  1  0.69450000  0.70820000  0.42342000  1.0 0.1883867793
C  C39  1  0.70820000  0.69450000  0.07658000  1.0 0.1883867793
C  C40  1  0.29180000  0.30550000  0.07658000  1.0 0.1883867793
C  C41  1  0.77370000  0.35770000  0.62618000  1.0 -0.1855829181
C  C42  1  0.22630000  0.64230000  0.62618000  1.0 -0.1855829181
C  C43  1  0.35770000  0.77370000  0.87382000  1.0 -0.1855829181
C  C44  1  0.64230000  0.22630000  0.87382000  1.0 -0.1855829181
C  C45  1  0.72630000  0.14230000  0.37382000  1.0 -0.1855829181
C  C46  1  0.27370000  0.85770000  0.37382000  1.0 -0.1855829181
C  C47  1  0.14230000  0.72630000  0.12618000  1.0 -0.1855829181
C  C48  1  0.85770000  0.27370000  0.12618000  1.0 -0.1855829181
C  C49  1  0.70990000  0.40710000  0.67697000  1.0 0.0971501898
C  C50  1  0.29010000  0.59290000  0.67697000  1.0 0.0971501898
C  C51  1  0.40710000  0.70990000  0.82303000  1.0 0.0971501898
C  C52  1  0.59290000  0.29010000  0.82303000  1.0 0.0971501898
C  C53  1  0.79010000  0.09290000  0.32303000  1.0 0.0971501898
C  C54  1  0.20990000  0.90710000  0.32303000  1.0 0.0971501898
C  C55  1  0.09290000  0.79010000  0.17697000  1.0 0.0971501898
C  C56  1  0.90710000  0.20990000  0.17697000  1.0 0.0971501898
C  C57  1  0.52530000  0.35370000  0.63196000  1.0 0.0870390149
C  C58  1  0.47470000  0.64630000  0.63196000  1.0 0.0870390149
C  C59  1  0.35370000  0.52530000  0.86804000  1.0 0.0870390149
C  C60  1  0.64630000  0.47470000  0.86804000  1.0 0.0870390149
C  C61  1  0.97470000  0.14630000  0.36804000  1.0 0.0870390149
C  C62  1  0.02530000  0.85370000  0.36804000  1.0 0.0870390149
C  C63  1  0.14630000  0.97470000  0.13196000  1.0 0.0870390149
C  C64  1  0.85370000  0.02530000  0.13196000  1.0 0.0870390149
C  C65  1  0.58230000  0.30150000  0.57993000  1.0 -0.175263632
C  C66  1  0.41770000  0.69850000  0.57993000  1.0 -0.175263632
C  C67  1  0.30150000  0.58230000  0.92007000  1.0 -0.175263632
C  C68  1  0.69850000  0.41770000  0.92007000  1.0 -0.175263632
C  C69  1  0.91770000  0.19850000  0.42007000  1.0 -0.175263632
C  C70  1  0.08230000  0.80150000  0.42007000  1.0 -0.175263632
C  C71  1  0.19850000  0.91770000  0.07993000  1.0 -0.175263632
C  C72  1  0.80150000  0.08230000  0.07993000  1.0 -0.175263632
C  C73  1  0.70820000  0.30550000  0.57658000  1.0 0.1883867793
C  C74  1  0.29180000  0.69450000  0.57658000  1.0 0.1883867793
C  C75  1  0.30550000  0.70820000  0.92342000  1.0 0.1883867793
C  C76  1  0.69450000  0.29180000  0.92342000  1.0 0.1883867793
C  C77  1  0.79180000  0.19450000  0.42342000  1.0 0.1883867793
C  C78  1  0.20820000  0.80550000  0.42342000  1.0 0.1883867793
C  C79  1  0.19450000  0.79180000  0.07658000  1.0 0.1883867793
C  C80  1  0.80550000  0.20820000  0.07658000  1.0 0.1883867793
N  N1  1  0.09478000  0.08840000  0.68016000  1.0 -0.2226513363
N  N2  1  0.90522000  0.91160000  0.68016000  1.0 -0.2226513363
N  N3  1  0.91160000  0.90522000  0.81984000  1.0 -0.2226513363
N  N4  1  0.08840000  0.09478000  0.81984000  1.0 -0.2226513363
N  N5  1  0.40522000  0.41160000  0.31984000  1.0 -0.2226513363
N  N6  1  0.59478000  0.58840000  0.31984000  1.0 -0.2226513363
N  N7  1  0.58840000  0.59478000  0.18016000  1.0 -0.2226513363
N  N8  1  0.41160000  0.40522000  0.18016000  1.0 -0.2226513363
N  N9  1  0.24560000  0.27800000  0.52487000  1.0 -0.1168739604
N  N10  1  0.75440000  0.72200000  0.52487000  1.0 -0.1168739604
N  N11  1  0.72200000  0.75440000  0.97513000  1.0 -0.1168739604
N  N12  1  0.27800000  0.24560000  0.97513000  1.0 -0.1168739604
N  N13  1  0.25440000  0.22200000  0.47513000  1.0 -0.1168739604
N  N14  1  0.74560000  0.77800000  0.47513000  1.0 -0.1168739604
N  N15  1  0.77800000  0.74560000  0.02487000  1.0 -0.1168739604
N  N16  1  0.22200000  0.25440000  0.02487000  1.0 -0.1168739604
N  N17  1  0.58840000  0.40522000  0.68016000  1.0 -0.2226513363
N  N18  1  0.41160000  0.59478000  0.68016000  1.0 -0.2226513363
N  N19  1  0.40522000  0.58840000  0.81984000  1.0 -0.2226513363
N  N20  1  0.59478000  0.41160000  0.81984000  1.0 -0.2226513363
N  N21  1  0.91160000  0.09478000  0.31984000  1.0 -0.2226513363
N  N22  1  0.08840000  0.90522000  0.31984000  1.0 -0.2226513363
N  N23  1  0.09478000  0.91160000  0.18016000  1.0 -0.2226513363
N  N24  1  0.90522000  0.08840000  0.18016000  1.0 -0.2226513363
N  N25  1  0.77800000  0.25440000  0.52487000  1.0 -0.1168739604
N  N26  1  0.22200000  0.74560000  0.52487000  1.0 -0.1168739604
N  N27  1  0.25440000  0.77800000  0.97513000  1.0 -0.1168739604
N  N28  1  0.74560000  0.22200000  0.97513000  1.0 -0.1168739604
N  N29  1  0.72200000  0.24560000  0.47513000  1.0 -0.1168739604
N  N30  1  0.27800000  0.75440000  0.47513000  1.0 -0.1168739604
N  N31  1  0.24560000  0.72200000  0.02487000  1.0 -0.1168739604
N  N32  1  0.75440000  0.27800000  0.02487000  1.0 -0.1168739604
O  O1  1  0.15425000  0.84575000  0.75000000  1.0 -0.7988693602
O  O2  1  0.84575000  0.15425000  0.75000000  1.0 -0.7988693602
O  O3  1  0.34575000  0.65425000  0.25000000  1.0 -0.7988693602
O  O4  1  0.65425000  0.34575000  0.25000000  1.0 -0.7988693602
O  O5  1  0.34575000  0.34575000  0.75000000  1.0 -0.7988693602
O  O6  1  0.65425000  0.65425000  0.75000000  1.0 -0.7988693602
O  O7  1  0.15425000  0.15425000  0.25000000  1.0 -0.7988693602
O  O8  1  0.84575000  0.84575000  0.25000000  1.0 -0.7988693602
F  F1  1  0.40409000  0.87945000  0.20658000  1.0 -0.508032035
F  F2  1  0.59591000  0.12055000  0.20658000  1.0 -0.508032035
F  F3  1  0.37945000  0.09591000  0.20658000  1.0 -0.508032035
F  F4  1  0.62055000  0.90409000  0.20658000  1.0 -0.508032035
F  F5  1  0.50000000  0.00000000  0.12663000  1.0 -0.5218896753
F  F6  1  0.50000000  0.00000000  0.28620000  1.0 -0.5321042872
F  F7  1  0.09591000  0.37945000  0.29342000  1.0 -0.508032035
F  F8  1  0.90409000  0.62055000  0.29342000  1.0 -0.508032035
F  F9  1  0.12055000  0.59591000  0.29342000  1.0 -0.508032035
F  F10  1  0.87945000  0.40409000  0.29342000  1.0 -0.508032035
F  F11  1  0.00000000  0.50000000  0.37337000  1.0 -0.5218896753
F  F12  1  0.00000000  0.50000000  0.21380000  1.0 -0.5321042872
F  F13  1  0.09591000  0.62055000  0.79342000  1.0 -0.508032035
F  F14  1  0.90409000  0.37945000  0.79342000  1.0 -0.508032035
F  F15  1  0.12055000  0.40409000  0.79342000  1.0 -0.508032035
F  F16  1  0.87945000  0.59591000  0.79342000  1.0 -0.508032035
F  F17  1  0.00000000  0.50000000  0.87337000  1.0 -0.5218896753
F  F18  1  0.00000000  0.50000000  0.71380000  1.0 -0.5321042872
F  F19  1  0.40409000  0.12055000  0.70658000  1.0 -0.508032035
F  F20  1  0.59591000  0.87945000  0.70658000  1.0 -0.508032035
F  F21  1  0.37945000  0.90409000  0.70658000  1.0 -0.508032035
F  F22  1  0.62055000  0.09591000  0.70658000  1.0 -0.508032035
F  F23  1  0.50000000  0.00000000  0.62663000  1.0 -0.5218896753
F  F24  1  0.50000000  0.00000000  0.78620000  1.0 -0.5321042872
