# DDEC6 charges by PACMAN v1.1 (https://github.com/mtap-research/PACMAN-charge/)
data_XEFGAQ_FSR_pacman
_symmetry_space_group_name_H-M   'P 1'
_cell_length_a   17.32700000
_cell_length_b   17.32700000
_cell_length_c   7.72880000
_cell_angle_alpha   90.00000000
_cell_angle_beta   90.00000000
_cell_angle_gamma   90.00000000
_symmetry_Int_Tables_number   1
_chemical_formula_structural   CuH16(C5N2)4
_chemical_formula_sum   'Cu4 H64 C80 N32'
_cell_volume   2320.37843126
_cell_formula_units_Z   4
loop_
 _symmetry_equiv_pos_site_id
 _symmetry_equiv_pos_as_xyz
  1  'x, y, z'
loop_
 _atom_site_type_symbol
 _atom_site_label
 _atom_site_symmetry_multiplicity
 _atom_site_fract_x
 _atom_site_fract_y
 _atom_site_fract_z
 _atom_site_occupancy
 _atom_site_charge
Cu  Cu1  1  0.00000000  0.25000000  0.12500000  1.0 0.2084485601
Cu  Cu2  1  0.50000000  0.75000000  0.62500000  1.0 0.2084485601
Cu  Cu3  1  0.50000000  0.25000000  0.37500000  1.0 0.2084485601
Cu  Cu4  1  0.00000000  0.75000000  0.87500000  1.0 0.2084485601
H  H1  1  0.90410000  0.49300000  0.84380000  1.0 0.1309624623
H  H2  1  0.90980000  0.39710000  0.05200000  1.0 0.0985970955
H  H3  1  0.09320000  0.30640000  0.83520000  1.0 0.0913651745
H  H4  1  0.09100000  0.39670000  0.61490000  1.0 0.1309624623
H  H5  1  0.40410000  0.99300000  0.34380000  1.0 0.1309624623
H  H6  1  0.40980000  0.89710000  0.55200000  1.0 0.0985970955
H  H7  1  0.59320000  0.80640000  0.33520000  1.0 0.0913651745
H  H8  1  0.59100000  0.89670000  0.11490000  1.0 0.1309624623
H  H9  1  0.59590000  0.50700000  0.34380000  1.0 0.1309624623
H  H10  1  0.59020000  0.60290000  0.55200000  1.0 0.0985970955
H  H11  1  0.40680000  0.69360000  0.33520000  1.0 0.0913651745
H  H12  1  0.40900000  0.60330000  0.11490000  1.0 0.1309624623
H  H13  1  0.09590000  0.00700000  0.84380000  1.0 0.1309624623
H  H14  1  0.09020000  0.10290000  0.05200000  1.0 0.0985970955
H  H15  1  0.90680000  0.19360000  0.83520000  1.0 0.0913651745
H  H16  1  0.90900000  0.10330000  0.61490000  1.0 0.1309624623
H  H17  1  0.25700000  0.15410000  0.09380000  1.0 0.1309624623
H  H18  1  0.35290000  0.15980000  0.30200000  1.0 0.0985970955
H  H19  1  0.44360000  0.34320000  0.08520000  1.0 0.0913651745
H  H20  1  0.35330000  0.34100000  0.86490000  1.0 0.1309624623
H  H21  1  0.75700000  0.65410000  0.59380000  1.0 0.1309624623
H  H22  1  0.85290000  0.65980000  0.80200000  1.0 0.0985970955
H  H23  1  0.94360000  0.84320000  0.58520000  1.0 0.0913651745
H  H24  1  0.85330000  0.84100000  0.36490000  1.0 0.1309624623
H  H25  1  0.24300000  0.84590000  0.59380000  1.0 0.1309624623
H  H26  1  0.14710000  0.84020000  0.80200000  1.0 0.0985970955
H  H27  1  0.05640000  0.65680000  0.58520000  1.0 0.0913651745
H  H28  1  0.14670000  0.65900000  0.36490000  1.0 0.1309624623
H  H29  1  0.74300000  0.34590000  0.09380000  1.0 0.1309624623
H  H30  1  0.64710000  0.34020000  0.30200000  1.0 0.0985970955
H  H31  1  0.55640000  0.15680000  0.08520000  1.0 0.0913651745
H  H32  1  0.64670000  0.15900000  0.86490000  1.0 0.1309624623
H  H33  1  0.09590000  0.50700000  0.15620000  1.0 0.1309624623
H  H34  1  0.09020000  0.60290000  0.94800000  1.0 0.0985970955
H  H35  1  0.90680000  0.69360000  0.16480000  1.0 0.0913651745
H  H36  1  0.90900000  0.60330000  0.38510000  1.0 0.1309624623
H  H37  1  0.59590000  0.00700000  0.65620000  1.0 0.1309624623
H  H38  1  0.59020000  0.10290000  0.44800000  1.0 0.0985970955
H  H39  1  0.40680000  0.19360000  0.66480000  1.0 0.0913651745
H  H40  1  0.40900000  0.10330000  0.88510000  1.0 0.1309624623
H  H41  1  0.40410000  0.49300000  0.65620000  1.0 0.1309624623
H  H42  1  0.40980000  0.39710000  0.44800000  1.0 0.0985970955
H  H43  1  0.59320000  0.30640000  0.66480000  1.0 0.0913651745
H  H44  1  0.59100000  0.39670000  0.88510000  1.0 0.1309624623
H  H45  1  0.90410000  0.99300000  0.15620000  1.0 0.1309624623
H  H46  1  0.90980000  0.89710000  0.94800000  1.0 0.0985970955
H  H47  1  0.09320000  0.80640000  0.16480000  1.0 0.0913651745
H  H48  1  0.09100000  0.89670000  0.38510000  1.0 0.1309624623
H  H49  1  0.74300000  0.84590000  0.90620000  1.0 0.1309624623
H  H50  1  0.64710000  0.84020000  0.69800000  1.0 0.0985970955
H  H51  1  0.55640000  0.65680000  0.91480000  1.0 0.0913651745
H  H52  1  0.64670000  0.65900000  0.13510000  1.0 0.1309624623
H  H53  1  0.24300000  0.34590000  0.40620000  1.0 0.1309624623
H  H54  1  0.14710000  0.34020000  0.19800000  1.0 0.0985970955
H  H55  1  0.05640000  0.15680000  0.41480000  1.0 0.0913651745
H  H56  1  0.14670000  0.15900000  0.63510000  1.0 0.1309624623
H  H57  1  0.75700000  0.15410000  0.40620000  1.0 0.1309624623
H  H58  1  0.85290000  0.15980000  0.19800000  1.0 0.0985970955
H  H59  1  0.94360000  0.34320000  0.41480000  1.0 0.0913651745
H  H60  1  0.85330000  0.34100000  0.63510000  1.0 0.1309624623
H  H61  1  0.25700000  0.65410000  0.90620000  1.0 0.1309624623
H  H62  1  0.35290000  0.65980000  0.69800000  1.0 0.0985970955
H  H63  1  0.44360000  0.84320000  0.91480000  1.0 0.0913651745
H  H64  1  0.35330000  0.84100000  0.13510000  1.0 0.1309624623
C  C1  1  0.99460000  0.45290000  0.70290000  1.0 0.172624332
C  C2  1  0.94250000  0.45400000  0.83720000  1.0 -0.209987834
C  C3  1  0.94710000  0.39730000  0.96190000  1.0 0.0531359544
C  C4  1  0.05350000  0.34410000  0.83490000  1.0 0.0651153187
C  C5  1  0.05280000  0.39760000  0.70310000  1.0 -0.209987834
C  C6  1  0.49460000  0.95290000  0.20290000  1.0 0.172624332
C  C7  1  0.44250000  0.95400000  0.33720000  1.0 -0.209987834
C  C8  1  0.44710000  0.89730000  0.46190000  1.0 0.0531359544
C  C9  1  0.55350000  0.84410000  0.33490000  1.0 0.0646403666
C  C10  1  0.55280000  0.89760000  0.20310000  1.0 -0.209987834
C  C11  1  0.50540000  0.54710000  0.20290000  1.0 0.172624332
C  C12  1  0.55750000  0.54600000  0.33720000  1.0 -0.209987834
C  C13  1  0.55290000  0.60270000  0.46190000  1.0 0.0531359544
C  C14  1  0.44650000  0.65590000  0.33490000  1.0 0.0646403666
C  C15  1  0.44720000  0.60240000  0.20310000  1.0 -0.209987834
C  C16  1  0.00540000  0.04710000  0.70290000  1.0 0.172624332
C  C17  1  0.05750000  0.04600000  0.83720000  1.0 -0.209987834
C  C18  1  0.05290000  0.10270000  0.96190000  1.0 0.0531359544
C  C19  1  0.94650000  0.15590000  0.83490000  1.0 0.0651153187
C  C20  1  0.94720000  0.10240000  0.70310000  1.0 -0.209987834
C  C21  1  0.29710000  0.24460000  0.95290000  1.0 0.172624332
C  C22  1  0.29600000  0.19250000  0.08720000  1.0 -0.209987834
C  C23  1  0.35270000  0.19710000  0.21190000  1.0 0.0531359544
C  C24  1  0.40590000  0.30350000  0.08490000  1.0 0.0646403666
C  C25  1  0.35240000  0.30280000  0.95310000  1.0 -0.209987834
C  C26  1  0.79710000  0.74460000  0.45290000  1.0 0.172624332
C  C27  1  0.79600000  0.69250000  0.58720000  1.0 -0.209987834
C  C28  1  0.85270000  0.69710000  0.71190000  1.0 0.0531359544
C  C29  1  0.90590000  0.80350000  0.58490000  1.0 0.0651153187
C  C30  1  0.85240000  0.80280000  0.45310000  1.0 -0.209987834
C  C31  1  0.20290000  0.75540000  0.45290000  1.0 0.172624332
C  C32  1  0.20400000  0.80750000  0.58720000  1.0 -0.209987834
C  C33  1  0.14730000  0.80290000  0.71190000  1.0 0.0531359544
C  C34  1  0.09410000  0.69650000  0.58490000  1.0 0.0651153187
C  C35  1  0.14760000  0.69720000  0.45310000  1.0 -0.209987834
C  C36  1  0.70290000  0.25540000  0.95290000  1.0 0.172624332
C  C37  1  0.70400000  0.30750000  0.08720000  1.0 -0.209987834
C  C38  1  0.64730000  0.30290000  0.21190000  1.0 0.0531359544
C  C39  1  0.59410000  0.19650000  0.08490000  1.0 0.0646403666
C  C40  1  0.64760000  0.19720000  0.95310000  1.0 -0.209987834
C  C41  1  0.00540000  0.54710000  0.29710000  1.0 0.172624332
C  C42  1  0.05750000  0.54600000  0.16280000  1.0 -0.209987834
C  C43  1  0.05290000  0.60270000  0.03810000  1.0 0.0531359544
C  C44  1  0.94650000  0.65590000  0.16510000  1.0 0.0651153187
C  C45  1  0.94720000  0.60240000  0.29690000  1.0 -0.209987834
C  C46  1  0.50540000  0.04710000  0.79710000  1.0 0.172624332
C  C47  1  0.55750000  0.04600000  0.66280000  1.0 -0.209987834
C  C48  1  0.55290000  0.10270000  0.53810000  1.0 0.0531359544
C  C49  1  0.44650000  0.15590000  0.66510000  1.0 0.0646403666
C  C50  1  0.44720000  0.10240000  0.79690000  1.0 -0.209987834
C  C51  1  0.49460000  0.45290000  0.79710000  1.0 0.172624332
C  C52  1  0.44250000  0.45400000  0.66280000  1.0 -0.209987834
C  C53  1  0.44710000  0.39730000  0.53810000  1.0 0.0531359544
C  C54  1  0.55350000  0.34410000  0.66510000  1.0 0.0646403666
C  C55  1  0.55280000  0.39760000  0.79690000  1.0 -0.209987834
C  C56  1  0.99460000  0.95290000  0.29710000  1.0 0.172624332
C  C57  1  0.94250000  0.95400000  0.16280000  1.0 -0.209987834
C  C58  1  0.94710000  0.89730000  0.03810000  1.0 0.0531359544
C  C59  1  0.05350000  0.84410000  0.16510000  1.0 0.0651153187
C  C60  1  0.05280000  0.89760000  0.29690000  1.0 -0.209987834
C  C61  1  0.70290000  0.75540000  0.04710000  1.0 0.172624332
C  C62  1  0.70400000  0.80750000  0.91280000  1.0 -0.209987834
C  C63  1  0.64730000  0.80290000  0.78810000  1.0 0.0531359544
C  C64  1  0.59410000  0.69650000  0.91510000  1.0 0.0651153187
C  C65  1  0.64760000  0.69720000  0.04690000  1.0 -0.209987834
C  C66  1  0.20290000  0.25540000  0.54710000  1.0 0.172624332
C  C67  1  0.20400000  0.30750000  0.41280000  1.0 -0.209987834
C  C68  1  0.14730000  0.30290000  0.28810000  1.0 0.0531359544
C  C69  1  0.09410000  0.19650000  0.41510000  1.0 0.0651153187
C  C70  1  0.14760000  0.19720000  0.54690000  1.0 -0.209987834
C  C71  1  0.79710000  0.24460000  0.54710000  1.0 0.172624332
C  C72  1  0.79600000  0.19250000  0.41280000  1.0 -0.209987834
C  C73  1  0.85270000  0.19710000  0.28810000  1.0 0.0531359544
C  C74  1  0.90590000  0.30350000  0.41510000  1.0 0.0651153187
C  C75  1  0.85240000  0.30280000  0.54690000  1.0 -0.209987834
C  C76  1  0.29710000  0.74460000  0.04710000  1.0 0.172624332
C  C77  1  0.29600000  0.69250000  0.91280000  1.0 -0.209987834
C  C78  1  0.35270000  0.69710000  0.78810000  1.0 0.0531359544
C  C79  1  0.40590000  0.80350000  0.91510000  1.0 0.0651153187
C  C80  1  0.35240000  0.80280000  0.04690000  1.0 -0.209987834
N  N1  1  0.00159000  0.34230000  0.96240000  1.0 -0.209987834
N  N2  1  0.98823000  0.51111000  0.57260000  1.0 -0.1652945717
N  N3  1  0.50159000  0.84230000  0.46240000  1.0 -0.209987834
N  N4  1  0.48823000  0.01111000  0.07260000  1.0 -0.1652945717
N  N5  1  0.49841000  0.65770000  0.46240000  1.0 -0.209987834
N  N6  1  0.51177000  0.48889000  0.07260000  1.0 -0.1652945717
N  N7  1  0.99841000  0.15770000  0.96240000  1.0 -0.209987834
N  N8  1  0.01177000  0.98889000  0.57260000  1.0 -0.1652945717
N  N9  1  0.40770000  0.25159000  0.21240000  1.0 -0.209987834
N  N10  1  0.23889000  0.23823000  0.82260000  1.0 -0.1652945717
N  N11  1  0.90770000  0.75159000  0.71240000  1.0 -0.209987834
N  N12  1  0.73889000  0.73823000  0.32260000  1.0 -0.1630496074
N  N13  1  0.09230000  0.74841000  0.71240000  1.0 -0.209987834
N  N14  1  0.26111000  0.76177000  0.32260000  1.0 -0.1630496074
N  N15  1  0.59230000  0.24841000  0.21240000  1.0 -0.209987834
N  N16  1  0.76111000  0.26177000  0.82260000  1.0 -0.1652945717
N  N17  1  0.99841000  0.65770000  0.03760000  1.0 -0.209987834
N  N18  1  0.01177000  0.48889000  0.42740000  1.0 -0.1652945717
N  N19  1  0.49841000  0.15770000  0.53760000  1.0 -0.209987834
N  N20  1  0.51177000  0.98889000  0.92740000  1.0 -0.1652945717
N  N21  1  0.50159000  0.34230000  0.53760000  1.0 -0.209987834
N  N22  1  0.48823000  0.51111000  0.92740000  1.0 -0.1652945717
N  N23  1  0.00159000  0.84230000  0.03760000  1.0 -0.209987834
N  N24  1  0.98823000  0.01111000  0.42740000  1.0 -0.1652945717
N  N25  1  0.59230000  0.74841000  0.78760000  1.0 -0.209987834
N  N26  1  0.76111000  0.76177000  0.17740000  1.0 -0.1652945717
N  N27  1  0.09230000  0.24841000  0.28760000  1.0 -0.209987834
N  N28  1  0.26111000  0.26177000  0.67740000  1.0 -0.1630496074
N  N29  1  0.90770000  0.25159000  0.28760000  1.0 -0.209987834
N  N30  1  0.73889000  0.23823000  0.67740000  1.0 -0.1630496074
N  N31  1  0.40770000  0.75159000  0.78760000  1.0 -0.209987834
N  N32  1  0.23889000  0.73823000  0.17740000  1.0 -0.1652945717
