# DDEC6 charges by PACMAN v1.1 (https://github.com/mtap-research/PACMAN-charge/)
data_XEFGEU01_ion_pacman
_symmetry_space_group_name_H-M   'P 1'
_cell_length_a   10.89140000
_cell_length_b   10.89140000
_cell_length_c   20.91740000
_cell_angle_alpha   90.00000000
_cell_angle_beta   90.00000000
_cell_angle_gamma   90.00000000
_symmetry_Int_Tables_number   1
_chemical_formula_structural   CuSiH16C20N8(OF3)2
_chemical_formula_sum   'Cu4 Si4 H64 C80 N32 O8 F24'
_cell_volume   2481.27624690
_cell_formula_units_Z   4
loop_
 _symmetry_equiv_pos_site_id
 _symmetry_equiv_pos_as_xyz
  1  'x, y, z'
loop_
 _atom_site_type_symbol
 _atom_site_label
 _atom_site_symmetry_multiplicity
 _atom_site_fract_x
 _atom_site_fract_y
 _atom_site_fract_z
 _atom_site_occupancy
 _atom_site_charge
Cu  Cu1  1  0.00000000  0.00000000  0.25000000  1.0 0.6186370161
Cu  Cu2  1  0.50000000  0.50000000  0.75000000  1.0 0.6186370161
Cu  Cu3  1  0.50000000  0.50000000  0.25000000  1.0 0.6186370161
Cu  Cu4  1  0.00000000  0.00000000  0.75000000  1.0 0.6186370161
Si  Si1  1  0.00000000  0.50000000  0.79397000  1.0 1.7258995481
Si  Si2  1  0.50000000  0.00000000  0.70603000  1.0 1.7258995481
Si  Si3  1  0.50000000  0.00000000  0.20603000  1.0 1.7247887162
Si  Si4  1  0.00000000  0.50000000  0.29397000  1.0 1.7258995481
H  H1  1  0.06200000  0.74470000  0.21290000  1.0 0.1188149588
H  H2  1  0.14300000  0.06130000  0.13340000  1.0 0.1131300238
H  H3  1  0.15180000  0.63800000  0.12840000  1.0 0.1460829732
H  H4  1  0.23150000  0.96620000  0.04470000  1.0 0.139182916
H  H5  1  0.93800000  0.25530000  0.21290000  1.0 0.1188149588
H  H6  1  0.85700000  0.93870000  0.13340000  1.0 0.1131300238
H  H7  1  0.84820000  0.36200000  0.12840000  1.0 0.1460829732
H  H8  1  0.76850000  0.03380000  0.04470000  1.0 0.139182916
H  H9  1  0.25530000  0.93800000  0.28710000  1.0 0.1188149588
H  H10  1  0.93870000  0.85700000  0.36660000  1.0 0.1131300238
H  H11  1  0.36200000  0.84820000  0.37160000  1.0 0.1460829732
H  H12  1  0.03380000  0.76850000  0.45530000  1.0 0.139182916
H  H13  1  0.74470000  0.06200000  0.28710000  1.0 0.1188149588
H  H14  1  0.06130000  0.14300000  0.36660000  1.0 0.1131300238
H  H15  1  0.63800000  0.15180000  0.37160000  1.0 0.1460829732
H  H16  1  0.96620000  0.23150000  0.45530000  1.0 0.139182916
H  H17  1  0.43800000  0.75530000  0.78710000  1.0 0.1188149588
H  H18  1  0.35700000  0.43870000  0.86660000  1.0 0.1131300238
H  H19  1  0.34820000  0.86200000  0.87160000  1.0 0.1460829732
H  H20  1  0.26850000  0.53380000  0.95530000  1.0 0.139182916
H  H21  1  0.56200000  0.24470000  0.78710000  1.0 0.1188149588
H  H22  1  0.64300000  0.56130000  0.86660000  1.0 0.1131300238
H  H23  1  0.65180000  0.13800000  0.87160000  1.0 0.1460829732
H  H24  1  0.73150000  0.46620000  0.95530000  1.0 0.139182916
H  H25  1  0.24470000  0.56200000  0.71290000  1.0 0.1188149588
H  H26  1  0.56130000  0.64300000  0.63340000  1.0 0.1131300238
H  H27  1  0.13800000  0.65180000  0.62840000  1.0 0.1460829732
H  H28  1  0.46620000  0.73150000  0.54470000  1.0 0.139182916
H  H29  1  0.75530000  0.43800000  0.71290000  1.0 0.1188149588
H  H30  1  0.43870000  0.35700000  0.63340000  1.0 0.1131300238
H  H31  1  0.86200000  0.34820000  0.62840000  1.0 0.1460829732
H  H32  1  0.53380000  0.26850000  0.54470000  1.0 0.139182916
H  H33  1  0.24470000  0.43800000  0.21290000  1.0 0.1188149588
H  H34  1  0.56130000  0.35700000  0.13340000  1.0 0.1131300238
H  H35  1  0.13800000  0.34820000  0.12840000  1.0 0.1460829732
H  H36  1  0.46620000  0.26850000  0.04470000  1.0 0.139182916
H  H37  1  0.75530000  0.56200000  0.21290000  1.0 0.1188149588
H  H38  1  0.43870000  0.64300000  0.13340000  1.0 0.1131300238
H  H39  1  0.86200000  0.65180000  0.12840000  1.0 0.1460829732
H  H40  1  0.53380000  0.73150000  0.04470000  1.0 0.139182916
H  H41  1  0.43800000  0.24470000  0.28710000  1.0 0.1188149588
H  H42  1  0.35700000  0.56130000  0.36660000  1.0 0.1131300238
H  H43  1  0.34820000  0.13800000  0.37160000  1.0 0.1460829732
H  H44  1  0.26850000  0.46620000  0.45530000  1.0 0.139182916
H  H45  1  0.56200000  0.75530000  0.28710000  1.0 0.1188149588
H  H46  1  0.64300000  0.43870000  0.36660000  1.0 0.1131300238
H  H47  1  0.65180000  0.86200000  0.37160000  1.0 0.1460829732
H  H48  1  0.73150000  0.53380000  0.45530000  1.0 0.139182916
H  H49  1  0.25530000  0.06200000  0.78710000  1.0 0.1188149588
H  H50  1  0.93870000  0.14300000  0.86660000  1.0 0.1131300238
H  H51  1  0.36200000  0.15180000  0.87160000  1.0 0.1460829732
H  H52  1  0.03380000  0.23150000  0.95530000  1.0 0.139182916
H  H53  1  0.74470000  0.93800000  0.78710000  1.0 0.1188149588
H  H54  1  0.06130000  0.85700000  0.86660000  1.0 0.1131300238
H  H55  1  0.63800000  0.84820000  0.87160000  1.0 0.1460829732
H  H56  1  0.96620000  0.76850000  0.95530000  1.0 0.139182916
H  H57  1  0.06200000  0.25530000  0.71290000  1.0 0.1188149588
H  H58  1  0.14300000  0.93870000  0.63340000  1.0 0.1131300238
H  H59  1  0.15180000  0.36200000  0.62840000  1.0 0.1460829732
H  H60  1  0.23150000  0.03380000  0.54470000  1.0 0.139182916
H  H61  1  0.93800000  0.74470000  0.71290000  1.0 0.1188149588
H  H62  1  0.85700000  0.06130000  0.63340000  1.0 0.1131300238
H  H63  1  0.84820000  0.63800000  0.62840000  1.0 0.1460829732
H  H64  1  0.76850000  0.96620000  0.54470000  1.0 0.139182916
C  C1  1  0.09760000  0.78940000  0.17860000  1.0 0.1011727584
C  C2  1  0.14470000  0.97410000  0.13160000  1.0 0.093804896
C  C3  1  0.14920000  0.72520000  0.12820000  1.0 -0.1779109509
C  C4  1  0.19700000  0.79170000  0.07720000  1.0 0.1870141636
C  C5  1  0.19720000  0.91920000  0.07850000  1.0 -0.1779109509
C  C6  1  0.90240000  0.21060000  0.17860000  1.0 0.1011727584
C  C7  1  0.85530000  0.02590000  0.13160000  1.0 0.093804896
C  C8  1  0.85080000  0.27480000  0.12820000  1.0 -0.1779109509
C  C9  1  0.80300000  0.20830000  0.07720000  1.0 0.1870141636
C  C10  1  0.80280000  0.08080000  0.07850000  1.0 -0.1779109509
C  C11  1  0.21060000  0.90240000  0.32140000  1.0 0.1011727584
C  C12  1  0.02590000  0.85530000  0.36840000  1.0 0.093804896
C  C13  1  0.27480000  0.85080000  0.37180000  1.0 -0.1779109509
C  C14  1  0.20830000  0.80300000  0.42280000  1.0 0.1870141636
C  C15  1  0.08080000  0.80280000  0.42150000  1.0 -0.1779109509
C  C16  1  0.78940000  0.09760000  0.32140000  1.0 0.1011727584
C  C17  1  0.97410000  0.14470000  0.36840000  1.0 0.093804896
C  C18  1  0.72520000  0.14920000  0.37180000  1.0 -0.1779109509
C  C19  1  0.79170000  0.19700000  0.42280000  1.0 0.1870141636
C  C20  1  0.91920000  0.19720000  0.42150000  1.0 -0.1779109509
C  C21  1  0.40240000  0.71060000  0.82140000  1.0 0.1011727584
C  C22  1  0.35530000  0.52590000  0.86840000  1.0 0.093804896
C  C23  1  0.35080000  0.77480000  0.87180000  1.0 -0.1779109509
C  C24  1  0.30300000  0.70830000  0.92280000  1.0 0.1870141636
C  C25  1  0.30280000  0.58080000  0.92150000  1.0 -0.1779109509
C  C26  1  0.59760000  0.28940000  0.82140000  1.0 0.1011727584
C  C27  1  0.64470000  0.47410000  0.86840000  1.0 0.093804896
C  C28  1  0.64920000  0.22520000  0.87180000  1.0 -0.1779109509
C  C29  1  0.69700000  0.29170000  0.92280000  1.0 0.1870141636
C  C30  1  0.69720000  0.41920000  0.92150000  1.0 -0.1779109509
C  C31  1  0.28940000  0.59760000  0.67860000  1.0 0.1011727584
C  C32  1  0.47410000  0.64470000  0.63160000  1.0 0.093804896
C  C33  1  0.22520000  0.64920000  0.62820000  1.0 -0.1779109509
C  C34  1  0.29170000  0.69700000  0.57720000  1.0 0.1870141636
C  C35  1  0.41920000  0.69720000  0.57850000  1.0 -0.1779109509
C  C36  1  0.71060000  0.40240000  0.67860000  1.0 0.1011727584
C  C37  1  0.52590000  0.35530000  0.63160000  1.0 0.093804896
C  C38  1  0.77480000  0.35080000  0.62820000  1.0 -0.1779109509
C  C39  1  0.70830000  0.30300000  0.57720000  1.0 0.1870141636
C  C40  1  0.58080000  0.30280000  0.57850000  1.0 -0.1779109509
C  C41  1  0.28940000  0.40240000  0.17860000  1.0 0.1011727584
C  C42  1  0.47410000  0.35530000  0.13160000  1.0 0.093804896
C  C43  1  0.22520000  0.35080000  0.12820000  1.0 -0.1779109509
C  C44  1  0.29170000  0.30300000  0.07720000  1.0 0.1870141636
C  C45  1  0.41920000  0.30280000  0.07850000  1.0 -0.1779109509
C  C46  1  0.71060000  0.59760000  0.17860000  1.0 0.1011727584
C  C47  1  0.52590000  0.64470000  0.13160000  1.0 0.093804896
C  C48  1  0.77480000  0.64920000  0.12820000  1.0 -0.1779109509
C  C49  1  0.70830000  0.69700000  0.07720000  1.0 0.1870141636
C  C50  1  0.58080000  0.69720000  0.07850000  1.0 -0.1779109509
C  C51  1  0.40240000  0.28940000  0.32140000  1.0 0.1011727584
C  C52  1  0.35530000  0.47410000  0.36840000  1.0 0.093804896
C  C53  1  0.35080000  0.22520000  0.37180000  1.0 -0.1779109509
C  C54  1  0.30300000  0.29170000  0.42280000  1.0 0.1870141636
C  C55  1  0.30280000  0.41920000  0.42150000  1.0 -0.1779109509
C  C56  1  0.59760000  0.71060000  0.32140000  1.0 0.1011727584
C  C57  1  0.64470000  0.52590000  0.36840000  1.0 0.093804896
C  C58  1  0.64920000  0.77480000  0.37180000  1.0 -0.1779109509
C  C59  1  0.69700000  0.70830000  0.42280000  1.0 0.1870141636
C  C60  1  0.69720000  0.58080000  0.42150000  1.0 -0.1779109509
C  C61  1  0.21060000  0.09760000  0.82140000  1.0 0.1011727584
C  C62  1  0.02590000  0.14470000  0.86840000  1.0 0.093804896
C  C63  1  0.27480000  0.14920000  0.87180000  1.0 -0.1779109509
C  C64  1  0.20830000  0.19700000  0.92280000  1.0 0.1870141636
C  C65  1  0.08080000  0.19720000  0.92150000  1.0 -0.1779109509
C  C66  1  0.78940000  0.90240000  0.82140000  1.0 0.1011727584
C  C67  1  0.97410000  0.85530000  0.86840000  1.0 0.093804896
C  C68  1  0.72520000  0.85080000  0.87180000  1.0 -0.1779109509
C  C69  1  0.79170000  0.80300000  0.92280000  1.0 0.1870141636
C  C70  1  0.91920000  0.80280000  0.92150000  1.0 -0.1779109509
C  C71  1  0.09760000  0.21060000  0.67860000  1.0 0.1011727584
C  C72  1  0.14470000  0.02590000  0.63160000  1.0 0.093804896
C  C73  1  0.14920000  0.27480000  0.62820000  1.0 -0.1779109509
C  C74  1  0.19700000  0.20830000  0.57720000  1.0 0.1870141636
C  C75  1  0.19720000  0.08080000  0.57850000  1.0 -0.1779109509
C  C76  1  0.90240000  0.78940000  0.67860000  1.0 0.1011727584
C  C77  1  0.85530000  0.97410000  0.63160000  1.0 0.093804896
C  C78  1  0.85080000  0.72520000  0.62820000  1.0 -0.1779109509
C  C79  1  0.80300000  0.79170000  0.57720000  1.0 0.1870141636
C  C80  1  0.80280000  0.91920000  0.57850000  1.0 -0.1779109509
N  N1  1  0.09620000  0.91180000  0.18060000  1.0 -0.2300083171
N  N2  1  0.25080000  0.72110000  0.02560000  1.0 -0.1084385606
N  N3  1  0.90380000  0.08820000  0.18060000  1.0 -0.2300083171
N  N4  1  0.74920000  0.27890000  0.02560000  1.0 -0.1084385606
N  N5  1  0.08820000  0.90380000  0.31940000  1.0 -0.2300083171
N  N6  1  0.27890000  0.74920000  0.47440000  1.0 -0.1084385606
N  N7  1  0.91180000  0.09620000  0.31940000  1.0 -0.2300083171
N  N8  1  0.72110000  0.25080000  0.47440000  1.0 -0.1084385606
N  N9  1  0.40380000  0.58820000  0.81940000  1.0 -0.2300083171
N  N10  1  0.24920000  0.77890000  0.97440000  1.0 -0.1084385606
N  N11  1  0.59620000  0.41180000  0.81940000  1.0 -0.2300083171
N  N12  1  0.75080000  0.22110000  0.97440000  1.0 -0.1084385606
N  N13  1  0.41180000  0.59620000  0.68060000  1.0 -0.2300083171
N  N14  1  0.22110000  0.75080000  0.52560000  1.0 -0.1084385606
N  N15  1  0.58820000  0.40380000  0.68060000  1.0 -0.2300083171
N  N16  1  0.77890000  0.24920000  0.52560000  1.0 -0.1084385606
N  N17  1  0.41180000  0.40380000  0.18060000  1.0 -0.2300083171
N  N18  1  0.22110000  0.24920000  0.02560000  1.0 -0.1084385606
N  N19  1  0.58820000  0.59620000  0.18060000  1.0 -0.2300083171
N  N20  1  0.77890000  0.75080000  0.02560000  1.0 -0.1084385606
N  N21  1  0.40380000  0.41180000  0.31940000  1.0 -0.2300083171
N  N22  1  0.24920000  0.22110000  0.47440000  1.0 -0.1084385606
N  N23  1  0.59620000  0.58820000  0.31940000  1.0 -0.2300083171
N  N24  1  0.75080000  0.77890000  0.47440000  1.0 -0.1084385606
N  N25  1  0.08820000  0.09620000  0.81940000  1.0 -0.2300083171
N  N26  1  0.27890000  0.25080000  0.97440000  1.0 -0.1084385606
N  N27  1  0.91180000  0.90380000  0.81940000  1.0 -0.2300083171
N  N28  1  0.72110000  0.74920000  0.97440000  1.0 -0.1084385606
N  N29  1  0.09620000  0.08820000  0.68060000  1.0 -0.2300083171
N  N30  1  0.25080000  0.27890000  0.52560000  1.0 -0.1084385606
N  N31  1  0.90380000  0.91180000  0.68060000  1.0 -0.2300083171
N  N32  1  0.74920000  0.72110000  0.52560000  1.0 -0.1084385606
O  O1  1  0.15220000  0.15220000  0.25000000  1.0 -0.1325322854
O  O2  1  0.84780000  0.84780000  0.25000000  1.0 -0.1325322854
O  O3  1  0.34780000  0.34780000  0.75000000  1.0 -0.1325322854
O  O4  1  0.65220000  0.65220000  0.75000000  1.0 -0.1325322854
O  O5  1  0.65220000  0.34780000  0.25000000  1.0 -0.1325322854
O  O6  1  0.34780000  0.65220000  0.25000000  1.0 -0.1325322854
O  O7  1  0.84780000  0.15220000  0.75000000  1.0 -0.1325322854
O  O8  1  0.15220000  0.84780000  0.75000000  1.0 -0.1325322854
F  F1  1  0.87850000  0.59550000  0.79309000  1.0 -0.4734482802
F  F2  1  0.12150000  0.40450000  0.79309000  1.0 -0.4734482802
F  F3  1  0.09550000  0.62150000  0.79309000  1.0 -0.4734482802
F  F4  1  0.90450000  0.37850000  0.79309000  1.0 -0.4734482802
F  F5  1  0.00000000  0.50000000  0.87360000  1.0 -0.5025684032
F  F6  1  0.00000000  0.50000000  0.71370000  1.0 -0.5025684032
F  F7  1  0.62150000  0.09550000  0.70691000  1.0 -0.4734482802
F  F8  1  0.37850000  0.90450000  0.70691000  1.0 -0.4734482802
F  F9  1  0.40450000  0.12150000  0.70691000  1.0 -0.4734482802
F  F10  1  0.59550000  0.87850000  0.70691000  1.0 -0.4734482802
F  F11  1  0.50000000  0.00000000  0.62640000  1.0 -0.5025684032
F  F12  1  0.50000000  0.00000000  0.78630000  1.0 -0.5025684032
F  F13  1  0.62150000  0.90450000  0.20691000  1.0 -0.4734482802
F  F14  1  0.37850000  0.09550000  0.20691000  1.0 -0.4734482802
F  F15  1  0.40450000  0.87850000  0.20691000  1.0 -0.4734482802
F  F16  1  0.59550000  0.12150000  0.20691000  1.0 -0.4734482802
F  F17  1  0.50000000  0.00000000  0.12640000  1.0 -0.5025684032
F  F18  1  0.50000000  0.00000000  0.28630000  1.0 -0.5025684032
F  F19  1  0.87850000  0.40450000  0.29309000  1.0 -0.4734482802
F  F20  1  0.12150000  0.59550000  0.29309000  1.0 -0.4734482802
F  F21  1  0.09550000  0.37850000  0.29309000  1.0 -0.4734482802
F  F22  1  0.90450000  0.62150000  0.29309000  1.0 -0.4734482802
F  F23  1  0.00000000  0.50000000  0.37360000  1.0 -0.5025684032
F  F24  1  0.00000000  0.50000000  0.21370000  1.0 -0.5025684032
