# DDEC6 charges by PACMAN v1.1 (https://github.com/mtap-research/PACMAN-charge/)
data_XEGKOL_ASR_pacman
_symmetry_space_group_name_H-M   'P 1'
_cell_length_a   19.26620000
_cell_length_b   19.26620000
_cell_length_c   14.63600000
_cell_angle_alpha   87.30000000
_cell_angle_beta   92.70000000
_cell_angle_gamma   78.75900000
_symmetry_Int_Tables_number   1
_chemical_formula_structural   GdH11C27N7O19
_chemical_formula_sum   'Gd4 H44 C108 N28 O76'
_cell_volume   5313.75668348
_cell_formula_units_Z   4
loop_
 _symmetry_equiv_pos_site_id
 _symmetry_equiv_pos_as_xyz
  1  'x, y, z'
loop_
 _atom_site_type_symbol
 _atom_site_label
 _atom_site_symmetry_multiplicity
 _atom_site_fract_x
 _atom_site_fract_y
 _atom_site_fract_z
 _atom_site_occupancy
 _atom_site_charge
Gd  Gd1  1  0.98247000  0.54473000  0.36875000  1.0 1.9422074343
Gd  Gd2  1  0.54473000  0.98247000  0.13125000  1.0 1.9422074343
Gd  Gd3  1  0.01753000  0.45527000  0.63125000  1.0 1.9422074343
Gd  Gd4  1  0.45527000  0.01753000  0.86875000  1.0 1.9422074343
H  H1  1  0.13210000  0.69070000  0.44740000  1.0 0.1493696878
H  H2  1  0.69070000  0.13210000  0.05260000  1.0 0.1493696878
H  H3  1  0.86790000  0.30930000  0.55260000  1.0 0.1493696878
H  H4  1  0.30930000  0.86790000  0.94740000  1.0 0.1493696878
H  H5  1  0.16540000  0.59340000  0.69650000  1.0 0.1393900897
H  H6  1  0.59340000  0.16540000  0.80350000  1.0 0.1393900897
H  H7  1  0.83460000  0.40660000  0.30350000  1.0 0.1393900897
H  H8  1  0.40660000  0.83460000  0.19650000  1.0 0.1393900897
H  H9  1  0.23790000  0.94170000  0.75800000  1.0 0.1493696878
H  H10  1  0.94170000  0.23790000  0.74200000  1.0 0.1493696878
H  H11  1  0.76210000  0.05830000  0.24200000  1.0 0.1493696878
H  H12  1  0.05830000  0.76210000  0.25800000  1.0 0.1493696878
H  H13  1  0.41790000  0.82590000  0.67270000  1.0 0.1493696878
H  H14  1  0.82590000  0.41790000  0.82730000  1.0 0.1493696878
H  H15  1  0.58210000  0.17410000  0.32730000  1.0 0.1493696878
H  H16  1  0.17410000  0.58210000  0.17270000  1.0 0.1493696878
H  H17  1  0.85970000  0.56950000  0.68570000  1.0 0.1493696878
H  H18  1  0.56950000  0.85970000  0.81430000  1.0 0.1493696878
H  H19  1  0.14030000  0.43050000  0.31430000  1.0 0.1493696878
H  H20  1  0.43050000  0.14030000  0.18570000  1.0 0.1493696878
H  H21  1  0.84160000  0.74200000  0.51610000  1.0 0.1493696878
H  H22  1  0.74200000  0.84160000  0.98390000  1.0 0.1493696878
H  H23  1  0.15840000  0.25800000  0.48390000  1.0 0.1493696878
H  H24  1  0.25800000  0.15840000  0.01610000  1.0 0.1493696878
H  H25  1  0.99600000  0.51060000  0.14330000  1.0 0.1079924387
H  H26  1  0.51060000  0.99600000  0.35670000  1.0 0.1079924387
H  H27  1  0.00400000  0.48940000  0.85670000  1.0 0.1079924387
H  H28  1  0.48940000  0.00400000  0.64330000  1.0 0.1079924387
H  H29  1  0.98540000  0.43980000  0.02760000  1.0 0.1324172179
H  H30  1  0.43980000  0.98540000  0.47240000  1.0 0.1324172179
H  H31  1  0.01460000  0.56020000  0.97240000  1.0 0.1324172179
H  H32  1  0.56020000  0.01460000  0.52760000  1.0 0.1324172179
H  H33  1  0.97770000  0.28370000  0.21560000  1.0 0.1393900897
H  H34  1  0.28370000  0.97770000  0.28440000  1.0 0.1393900897
H  H35  1  0.02230000  0.71630000  0.78440000  1.0 0.1393900897
H  H36  1  0.71630000  0.02230000  0.71560000  1.0 0.1393900897
H  H37  1  0.98810000  0.36130000  0.32640000  1.0 0.0994988243
H  H38  1  0.36130000  0.98810000  0.17360000  1.0 0.0994988243
H  H39  1  0.01190000  0.63870000  0.67360000  1.0 0.0994988243
H  H40  1  0.63870000  0.01190000  0.82640000  1.0 0.0994988243
H  H41  1  0.97690000  0.25590000  0.05020000  1.0 0.1079924387
H  H42  1  0.25590000  0.97690000  0.44980000  1.0 0.1079924387
H  H43  1  0.02310000  0.74410000  0.94980000  1.0 0.1079924387
H  H44  1  0.74410000  0.02310000  0.55020000  1.0 0.1079924387
C  C1  1  0.09990000  0.57850000  0.53900000  1.0 0.6194454218
C  C2  1  0.57850000  0.09990000  0.96100000  1.0 0.6194454218
C  C3  1  0.90010000  0.42150000  0.46100000  1.0 0.6194454218
C  C4  1  0.42150000  0.90010000  0.03900000  1.0 0.6194454218
C  C5  1  0.14180000  0.63180000  0.56710000  1.0 -0.0133050968
C  C6  1  0.63180000  0.14180000  0.93290000  1.0 -0.0133050968
C  C7  1  0.85820000  0.36820000  0.43290000  1.0 -0.0133050968
C  C8  1  0.36820000  0.85820000  0.06710000  1.0 -0.0133050968
C  C9  1  0.15050000  0.68750000  0.50770000  1.0 -0.1158315008
C  C10  1  0.68750000  0.15050000  0.99230000  1.0 -0.1158315008
C  C11  1  0.84950000  0.31250000  0.49230000  1.0 -0.1158315008
C  C12  1  0.31250000  0.84950000  0.00770000  1.0 -0.1158315008
C  C13  1  0.18730000  0.73910000  0.53910000  1.0 0.0394683826
C  C14  1  0.73910000  0.18730000  0.96090000  1.0 0.0394683826
C  C15  1  0.81270000  0.26090000  0.46090000  1.0 0.0394683826
C  C16  1  0.26090000  0.81270000  0.03910000  1.0 0.0394683826
C  C17  1  0.21680000  0.73700000  0.62660000  1.0 0.0193391085
C  C18  1  0.73700000  0.21680000  0.87340000  1.0 0.0193391085
C  C19  1  0.78320000  0.26300000  0.37340000  1.0 0.0193391085
C  C20  1  0.26300000  0.78320000  0.12660000  1.0 0.0193391085
C  C21  1  0.20560000  0.68200000  0.68450000  1.0 0.0394683826
C  C22  1  0.68200000  0.20560000  0.81550000  1.0 0.0394683826
C  C23  1  0.79440000  0.31800000  0.31550000  1.0 0.0394683826
C  C24  1  0.31800000  0.79440000  0.18450000  1.0 0.0394683826
C  C25  1  0.17010000  0.63010000  0.65530000  1.0 -0.1284852372
C  C26  1  0.63010000  0.17010000  0.84470000  1.0 -0.1284852372
C  C27  1  0.82990000  0.36990000  0.34470000  1.0 -0.1284852372
C  C28  1  0.36990000  0.82990000  0.15530000  1.0 -0.1284852372
C  C29  1  0.25610000  0.79370000  0.65820000  1.0 0.0193391085
C  C30  1  0.79370000  0.25610000  0.84180000  1.0 0.0193391085
C  C31  1  0.74390000  0.20630000  0.34180000  1.0 0.0193391085
C  C32  1  0.20630000  0.74390000  0.15820000  1.0 0.0193391085
C  C33  1  0.22540000  0.85160000  0.69980000  1.0 0.0394683826
C  C34  1  0.85160000  0.22540000  0.80020000  1.0 0.0394683826
C  C35  1  0.77460000  0.14840000  0.30020000  1.0 0.0394683826
C  C36  1  0.14840000  0.77460000  0.19980000  1.0 0.0394683826
C  C37  1  0.26180000  0.90140000  0.73180000  1.0 -0.114541511
C  C38  1  0.90140000  0.26180000  0.76820000  1.0 -0.114541511
C  C39  1  0.73820000  0.09860000  0.26820000  1.0 -0.114541511
C  C40  1  0.09860000  0.73820000  0.23180000  1.0 -0.114541511
C  C41  1  0.33500000  0.89060000  0.72440000  1.0 0.0297483737
C  C42  1  0.89060000  0.33500000  0.77560000  1.0 0.0297483737
C  C43  1  0.66500000  0.10940000  0.27560000  1.0 0.0297483737
C  C44  1  0.10940000  0.66500000  0.22440000  1.0 0.0297483737
C  C45  1  0.36950000  0.83270000  0.68070000  1.0 -0.114541511
C  C46  1  0.83270000  0.36950000  0.81930000  1.0 -0.114541511
C  C47  1  0.63050000  0.16730000  0.31930000  1.0 -0.114541511
C  C48  1  0.16730000  0.63050000  0.18070000  1.0 -0.114541511
C  C49  1  0.33050000  0.78570000  0.64940000  1.0 0.0193391085
C  C50  1  0.78570000  0.33050000  0.85060000  1.0 0.0193391085
C  C51  1  0.66950000  0.21430000  0.35060000  1.0 0.0193391085
C  C52  1  0.21430000  0.66950000  0.14940000  1.0 0.0193391085
C  C53  1  0.37740000  0.94060000  0.76630000  1.0 0.5658191825
C  C54  1  0.94060000  0.37740000  0.73370000  1.0 0.5658191825
C  C55  1  0.62260000  0.05940000  0.23370000  1.0 0.5658191825
C  C56  1  0.05940000  0.62260000  0.26630000  1.0 0.5658191825
C  C57  1  0.90520000  0.60860000  0.52370000  1.0 0.6123762812
C  C58  1  0.60860000  0.90520000  0.97630000  1.0 0.6123762812
C  C59  1  0.09480000  0.39140000  0.47630000  1.0 0.6123762812
C  C60  1  0.39140000  0.09480000  0.02370000  1.0 0.6123762812
C  C61  1  0.85820000  0.64940000  0.59190000  1.0 0.0193391085
C  C62  1  0.64940000  0.85820000  0.90810000  1.0 0.0193391085
C  C63  1  0.14180000  0.35060000  0.40810000  1.0 0.0193391085
C  C64  1  0.35060000  0.14180000  0.09190000  1.0 0.0193391085
C  C65  1  0.84280000  0.61760000  0.67160000  1.0 -0.1384526406
C  C66  1  0.61760000  0.84280000  0.82840000  1.0 -0.1384526406
C  C67  1  0.15720000  0.38240000  0.32840000  1.0 -0.1384526406
C  C68  1  0.38240000  0.15720000  0.17160000  1.0 -0.1384526406
C  C69  1  0.80050000  0.65970000  0.73160000  1.0 0.0394683826
C  C70  1  0.65970000  0.80050000  0.76840000  1.0 0.0394683826
C  C71  1  0.19950000  0.34030000  0.26840000  1.0 0.0394683826
C  C72  1  0.34030000  0.19950000  0.23160000  1.0 0.0394683826
C  C73  1  0.77500000  0.73000000  0.71640000  1.0 0.0048142048
C  C74  1  0.73000000  0.77500000  0.78360000  1.0 0.0048142048
C  C75  1  0.22500000  0.27000000  0.28360000  1.0 0.0048142048
C  C76  1  0.27000000  0.22500000  0.21640000  1.0 0.0048142048
C  C77  1  0.79110000  0.76130000  0.63470000  1.0 0.0297483737
C  C78  1  0.76130000  0.79110000  0.86530000  1.0 0.0297483737
C  C79  1  0.20890000  0.23870000  0.36530000  1.0 0.0297483737
C  C80  1  0.23870000  0.20890000  0.13470000  1.0 0.0297483737
C  C81  1  0.83210000  0.72090000  0.57130000  1.0 -0.1384526406
C  C82  1  0.72090000  0.83210000  0.92870000  1.0 -0.1384526406
C  C83  1  0.16790000  0.27910000  0.42870000  1.0 -0.1384526406
C  C84  1  0.27910000  0.16790000  0.07130000  1.0 -0.1384526406
C  C85  1  0.99180000  0.46420000  0.15830000  1.0 0.067043447
C  C86  1  0.46420000  0.99180000  0.34170000  1.0 0.067043447
C  C87  1  0.00820000  0.53580000  0.84170000  1.0 0.067043447
C  C88  1  0.53580000  0.00820000  0.65830000  1.0 0.067043447
C  C89  1  0.98580000  0.42240000  0.08810000  1.0 -0.1476453309
C  C90  1  0.42240000  0.98580000  0.41190000  1.0 -0.1476453309
C  C91  1  0.01420000  0.57760000  0.91190000  1.0 -0.1476453309
C  C92  1  0.57760000  0.01420000  0.58810000  1.0 -0.1476453309
C  C93  1  0.98030000  0.35230000  0.10900000  1.0 0.0758299465
C  C94  1  0.35230000  0.98030000  0.39100000  1.0 0.0758299465
C  C95  1  0.01970000  0.64770000  0.89100000  1.0 0.0758299465
C  C96  1  0.64770000  0.01970000  0.60900000  1.0 0.0758299465
C  C97  1  0.98120000  0.33000000  0.19910000  1.0 -0.1687967544
C  C98  1  0.33000000  0.98120000  0.30090000  1.0 -0.1687967544
C  C99  1  0.01880000  0.67000000  0.80090000  1.0 -0.1687967544
C  C100  1  0.67000000  0.01880000  0.69910000  1.0 -0.1687967544
C  C101  1  0.98730000  0.37750000  0.26540000  1.0 0.0902817781
C  C102  1  0.37750000  0.98730000  0.23460000  1.0 0.0902817781
C  C103  1  0.01270000  0.62250000  0.73460000  1.0 0.0902817781
C  C104  1  0.62250000  0.01270000  0.76540000  1.0 0.0902817781
C  C105  1  0.97880000  0.30280000  0.03440000  1.0 0.2556074645
C  C106  1  0.30280000  0.97880000  0.46560000  1.0 0.2556074645
C  C107  1  0.02120000  0.69720000  0.96560000  1.0 0.2556074645
C  C108  1  0.69720000  0.02120000  0.53440000  1.0 0.2556074645
N  N1  1  0.19480000  0.79520000  0.46840000  1.0 0.518683293
N  N2  1  0.79520000  0.19480000  0.03160000  1.0 0.518683293
N  N3  1  0.80520000  0.20480000  0.53160000  1.0 0.518683293
N  N4  1  0.20480000  0.80520000  0.96840000  1.0 0.518683293
N  N5  1  0.22990000  0.67570000  0.78220000  1.0 0.518683293
N  N6  1  0.67570000  0.22990000  0.71780000  1.0 0.518683293
N  N7  1  0.77010000  0.32430000  0.21780000  1.0 0.518683293
N  N8  1  0.32430000  0.77010000  0.28220000  1.0 0.518683293
N  N9  1  0.14780000  0.86720000  0.71440000  1.0 0.518683293
N  N10  1  0.86720000  0.14780000  0.78560000  1.0 0.518683293
N  N11  1  0.85220000  0.13280000  0.28560000  1.0 0.518683293
N  N12  1  0.13280000  0.85220000  0.21440000  1.0 0.518683293
N  N13  1  0.36840000  0.72720000  0.60030000  1.0 0.5074288334
N  N14  1  0.72720000  0.36840000  0.89970000  1.0 0.5074288334
N  N15  1  0.63160000  0.27280000  0.39970000  1.0 0.5074288334
N  N16  1  0.27280000  0.63160000  0.10030000  1.0 0.5074288334
N  N17  1  0.78410000  0.62030000  0.81570000  1.0 0.5018026615
N  N18  1  0.62030000  0.78410000  0.68430000  1.0 0.5018026615
N  N19  1  0.21590000  0.37970000  0.18430000  1.0 0.5018026615
N  N20  1  0.37970000  0.21590000  0.31570000  1.0 0.5018026615
N  N21  1  0.77230000  0.83690000  0.61190000  1.0 0.4794892158
N  N22  1  0.83690000  0.77230000  0.88810000  1.0 0.4794892158
N  N23  1  0.22770000  0.16310000  0.38810000  1.0 0.4794892158
N  N24  1  0.16310000  0.22770000  0.11190000  1.0 0.4794892158
N  N25  1  0.99220000  0.44500000  0.24840000  1.0 -0.3447914262
N  N26  1  0.44500000  0.99220000  0.25160000  1.0 -0.3447914262
N  N27  1  0.00780000  0.55500000  0.75160000  1.0 -0.3447914262
N  N28  1  0.55500000  0.00780000  0.74840000  1.0 -0.3447914262
O  O1  1  0.06790000  0.59070000  0.46190000  1.0 -0.6085513448
O  O2  1  0.59070000  0.06790000  0.03810000  1.0 -0.6085513448
O  O3  1  0.93210000  0.40930000  0.53810000  1.0 -0.6085513448
O  O4  1  0.40930000  0.93210000  0.96190000  1.0 -0.6085513448
O  O5  1  0.09920000  0.52820000  0.59480000  1.0 -0.6311255758
O  O6  1  0.52820000  0.09920000  0.90520000  1.0 -0.6311255758
O  O7  1  0.90080000  0.47180000  0.40520000  1.0 -0.6311255758
O  O8  1  0.47180000  0.90080000  0.09480000  1.0 -0.6311255758
O  O9  1  0.44380000  0.92500000  0.76760000  1.0 -0.6311255758
O  O10  1  0.92500000  0.44380000  0.73240000  1.0 -0.6311255758
O  O11  1  0.55620000  0.07500000  0.23240000  1.0 -0.6311255758
O  O12  1  0.07500000  0.55620000  0.26760000  1.0 -0.6311255758
O  O13  1  0.34440000  0.99640000  0.79570000  1.0 -0.5839755153
O  O14  1  0.99640000  0.34440000  0.70430000  1.0 -0.5839755153
O  O15  1  0.65560000  0.00360000  0.20430000  1.0 -0.5839755153
O  O16  1  0.00360000  0.65560000  0.29570000  1.0 -0.5839755153
O  O17  1  0.14960000  0.80940000  0.40630000  1.0 -0.3045341735
O  O18  1  0.80940000  0.14960000  0.09370000  1.0 -0.3045341735
O  O19  1  0.85040000  0.19060000  0.59370000  1.0 -0.3045341735
O  O20  1  0.19060000  0.85040000  0.90630000  1.0 -0.3045341735
O  O21  1  0.24530000  0.82270000  0.47700000  1.0 -0.3086786186
O  O22  1  0.82270000  0.24530000  0.02300000  1.0 -0.3086786186
O  O23  1  0.75470000  0.17730000  0.52300000  1.0 -0.3086786186
O  O24  1  0.17730000  0.75470000  0.97700000  1.0 -0.3086786186
O  O25  1  0.20560000  0.63420000  0.83310000  1.0 -0.318957529
O  O26  1  0.63420000  0.20560000  0.66690000  1.0 -0.318957529
O  O27  1  0.79440000  0.36580000  0.16690000  1.0 -0.318957529
O  O28  1  0.36580000  0.79440000  0.33310000  1.0 -0.318957529
O  O29  1  0.26980000  0.71280000  0.80800000  1.0 -0.318957529
O  O30  1  0.71280000  0.26980000  0.69200000  1.0 -0.318957529
O  O31  1  0.73020000  0.28720000  0.19200000  1.0 -0.318957529
O  O32  1  0.28720000  0.73020000  0.30800000  1.0 -0.318957529
O  O33  1  0.11650000  0.81690000  0.70990000  1.0 -0.3542702635
O  O34  1  0.81690000  0.11650000  0.79010000  1.0 -0.3542702635
O  O35  1  0.88350000  0.18310000  0.29010000  1.0 -0.3542702635
O  O36  1  0.18310000  0.88350000  0.20990000  1.0 -0.3542702635
O  O37  1  0.12050000  0.92690000  0.73360000  1.0 -0.2840014016
O  O38  1  0.92690000  0.12050000  0.76640000  1.0 -0.2840014016
O  O39  1  0.87950000  0.07310000  0.26640000  1.0 -0.2840014016
O  O40  1  0.07310000  0.87950000  0.23360000  1.0 -0.2840014016
O  O41  1  0.34670000  0.67150000  0.59900000  1.0 -0.3086786186
O  O42  1  0.67150000  0.34670000  0.90100000  1.0 -0.3086786186
O  O43  1  0.65330000  0.32850000  0.40100000  1.0 -0.3086786186
O  O44  1  0.32850000  0.65330000  0.09900000  1.0 -0.3086786186
O  O45  1  0.42250000  0.73550000  0.56330000  1.0 -0.2937486683
O  O46  1  0.73550000  0.42250000  0.93670000  1.0 -0.2937486683
O  O47  1  0.57750000  0.26450000  0.43670000  1.0 -0.2937486683
O  O48  1  0.26450000  0.57750000  0.06330000  1.0 -0.2937486683
O  O49  1  0.94650000  0.55270000  0.55330000  1.0 -0.7007668232
O  O50  1  0.55270000  0.94650000  0.94670000  1.0 -0.7007668232
O  O51  1  0.05350000  0.44730000  0.44670000  1.0 -0.7007668232
O  O52  1  0.44730000  0.05350000  0.05330000  1.0 -0.7007668232
O  O53  1  0.90030000  0.63270000  0.44380000  1.0 -0.5649607991
O  O54  1  0.63270000  0.90030000  0.05620000  1.0 -0.5649607991
O  O55  1  0.09970000  0.36730000  0.55620000  1.0 -0.5649607991
O  O56  1  0.36730000  0.09970000  0.94380000  1.0 -0.5649607991
O  O57  1  0.82910000  0.57290000  0.84810000  1.0 -0.2737624561
O  O58  1  0.57290000  0.82910000  0.65190000  1.0 -0.2737624561
O  O59  1  0.17090000  0.42710000  0.15190000  1.0 -0.2737624561
O  O60  1  0.42710000  0.17090000  0.34810000  1.0 -0.2737624561
O  O61  1  0.72880000  0.64200000  0.84980000  1.0 -0.2840014016
O  O62  1  0.64200000  0.72880000  0.65020000  1.0 -0.2840014016
O  O63  1  0.27120000  0.35800000  0.15020000  1.0 -0.2840014016
O  O64  1  0.35800000  0.27120000  0.34980000  1.0 -0.2840014016
O  O65  1  0.77380000  0.87580000  0.67710000  1.0 -0.3331413483
O  O66  1  0.87580000  0.77380000  0.82290000  1.0 -0.3331413483
O  O67  1  0.22620000  0.12420000  0.32290000  1.0 -0.3331413483
O  O68  1  0.12420000  0.22620000  0.17710000  1.0 -0.3331413483
O  O69  1  0.76540000  0.86040000  0.53960000  1.0 -0.2096920897
O  O70  1  0.86040000  0.76540000  0.96040000  1.0 -0.2096920897
O  O71  1  0.23460000  0.13960000  0.46040000  1.0 -0.2096920897
O  O72  1  0.13960000  0.23460000  0.03960000  1.0 -0.2096920897
O  O73  1  0.97990000  0.32050000  0.95380000  1.0 -0.3086786186
O  O74  1  0.32050000  0.97990000  0.54620000  1.0 -0.3086786186
O  O75  1  0.02010000  0.67950000  0.04620000  1.0 -0.3086786186
O  O76  1  0.67950000  0.02010000  0.45380000  1.0 -0.3086786186
