# DDEC6 charges by PACMAN v1.1 (https://github.com/mtap-research/PACMAN-charge/)
data_XEGKUR_FSR_pacman
_symmetry_space_group_name_H-M   'P 1'
_cell_length_a   18.77530000
_cell_length_b   18.77530000
_cell_length_c   15.30900000
_cell_angle_alpha   84.17790000
_cell_angle_beta   95.82210000
_cell_angle_gamma   72.01620000
_symmetry_Int_Tables_number   1
_chemical_formula_structural   GdH20C27(N2O5)4
_chemical_formula_sum   'Gd4 H80 C108 N32 O80'
_cell_volume   5055.96003288
_cell_formula_units_Z   4
loop_
 _symmetry_equiv_pos_site_id
 _symmetry_equiv_pos_as_xyz
  1  'x, y, z'
loop_
 _atom_site_type_symbol
 _atom_site_label
 _atom_site_symmetry_multiplicity
 _atom_site_fract_x
 _atom_site_fract_y
 _atom_site_fract_z
 _atom_site_occupancy
 _atom_site_charge
Gd  Gd1  1  0.01534000  0.43332000  0.61739000  1.0 2.0008108458
Gd  Gd2  1  0.43332000  0.01534000  0.88261000  1.0 2.0008108458
Gd  Gd3  1  0.98466000  0.56668000  0.38261000  1.0 2.0008108458
Gd  Gd4  1  0.56668000  0.98466000  0.11739000  1.0 2.0008108458
H  H1  1  0.11060000  0.69840000  0.50850000  1.0 0.1583706913
H  H2  1  0.69840000  0.11060000  0.99150000  1.0 0.1583706913
H  H3  1  0.88940000  0.30160000  0.49150000  1.0 0.1583706913
H  H4  1  0.30160000  0.88940000  0.00850000  1.0 0.1583706913
H  H5  1  0.15880000  0.56180000  0.74120000  1.0 0.1296615561
H  H6  1  0.56180000  0.15880000  0.75880000  1.0 0.1296615561
H  H7  1  0.84120000  0.43820000  0.25880000  1.0 0.1296615561
H  H8  1  0.43820000  0.84120000  0.24120000  1.0 0.1296615561
H  H9  1  0.40190000  0.79530000  0.75580000  1.0 0.1514595961
H  H10  1  0.79530000  0.40190000  0.74420000  1.0 0.1514595961
H  H11  1  0.59810000  0.20470000  0.24420000  1.0 0.1514595961
H  H12  1  0.20470000  0.59810000  0.25580000  1.0 0.1514595961
H  H13  1  0.20510000  0.93170000  0.81360000  1.0 0.1514595961
H  H14  1  0.93170000  0.20510000  0.68640000  1.0 0.1514595961
H  H15  1  0.79490000  0.06830000  0.18640000  1.0 0.1514595961
H  H16  1  0.06830000  0.79490000  0.31360000  1.0 0.1514595961
H  H17  1  0.18370000  0.24530000  0.47050000  1.0 0.1398169445
H  H18  1  0.24530000  0.18370000  0.02950000  1.0 0.1398169445
H  H19  1  0.81630000  0.75470000  0.52950000  1.0 0.1398169445
H  H20  1  0.75470000  0.81630000  0.97050000  1.0 0.1398169445
H  H21  1  0.15660000  0.44840000  0.34170000  1.0 0.1583706913
H  H22  1  0.44840000  0.15660000  0.15830000  1.0 0.1583706913
H  H23  1  0.84340000  0.55160000  0.65830000  1.0 0.1583706913
H  H24  1  0.55160000  0.84340000  0.84170000  1.0 0.1583706913
H  H25  1  0.98610000  0.45570000  0.84090000  1.0 0.1398169445
H  H26  1  0.45570000  0.98610000  0.65910000  1.0 0.1398169445
H  H27  1  0.01390000  0.54430000  0.15910000  1.0 0.1398169445
H  H28  1  0.54430000  0.01390000  0.34090000  1.0 0.1398169445
H  H29  1  0.01040000  0.63260000  0.85530000  1.0 0.1296615561
H  H30  1  0.63260000  0.01040000  0.64470000  1.0 0.1296615561
H  H31  1  0.98960000  0.36740000  0.14470000  1.0 0.1296615561
H  H32  1  0.36740000  0.98960000  0.35530000  1.0 0.1296615561
H  H33  1  0.09100000  0.58720000  0.90630000  1.0 0.1296615561
H  H34  1  0.58720000  0.09100000  0.59370000  1.0 0.1296615561
H  H35  1  0.90900000  0.41280000  0.09370000  1.0 0.1296615561
H  H36  1  0.41280000  0.90900000  0.40630000  1.0 0.1296615561
H  H37  1  0.06930000  0.57650000  0.80790000  1.0 0.1095093163
H  H38  1  0.57650000  0.06930000  0.69210000  1.0 0.1095093163
H  H39  1  0.93070000  0.42350000  0.19210000  1.0 0.1095093163
H  H40  1  0.42350000  0.93070000  0.30790000  1.0 0.1095093163
H  H41  1  0.04420000  0.55580000  0.01220000  1.0 0.1095093163
H  H42  1  0.55580000  0.04420000  0.48780000  1.0 0.1095093163
H  H43  1  0.95580000  0.44420000  0.98780000  1.0 0.1095093163
H  H44  1  0.44420000  0.95580000  0.51220000  1.0 0.1095093163
H  H45  1  0.09360000  0.47280000  0.00570000  1.0 0.0997424694
H  H46  1  0.47280000  0.09360000  0.49430000  1.0 0.0997424694
H  H47  1  0.90640000  0.52720000  0.99430000  1.0 0.0997424694
H  H48  1  0.52720000  0.90640000  0.50570000  1.0 0.0997424694
H  H49  1  0.14040000  0.43400000  0.79720000  1.0 0.1095093163
H  H50  1  0.43400000  0.14040000  0.70280000  1.0 0.1095093163
H  H51  1  0.85960000  0.56600000  0.20280000  1.0 0.1095093163
H  H52  1  0.56600000  0.85960000  0.29720000  1.0 0.1095093163
H  H53  1  0.28110000  0.23810000  0.92910000  1.0 0.1296615561
H  H54  1  0.23810000  0.28110000  0.57090000  1.0 0.1296615561
H  H55  1  0.71890000  0.76190000  0.07090000  1.0 0.1296615561
H  H56  1  0.76190000  0.71890000  0.42910000  1.0 0.1296615561
H  H57  1  0.25660000  0.23780000  0.82820000  1.0 0.1398169445
H  H58  1  0.23780000  0.25660000  0.67180000  1.0 0.1398169445
H  H59  1  0.74340000  0.76220000  0.17180000  1.0 0.1398169445
H  H60  1  0.76220000  0.74340000  0.32820000  1.0 0.1398169445
H  H61  1  0.30900000  0.28460000  0.85700000  1.0 0.1296615561
H  H62  1  0.28460000  0.30900000  0.64300000  1.0 0.1296615561
H  H63  1  0.69100000  0.71540000  0.14300000  1.0 0.1296615561
H  H64  1  0.71540000  0.69100000  0.35700000  1.0 0.1296615561
H  H65  1  0.20210000  0.31890000  0.00470000  1.0 0.1095093163
H  H66  1  0.31890000  0.20210000  0.49530000  1.0 0.1095093163
H  H67  1  0.79790000  0.68110000  0.99530000  1.0 0.1095093163
H  H68  1  0.68110000  0.79790000  0.50470000  1.0 0.1095093163
H  H69  1  0.22740000  0.38800000  0.97170000  1.0 0.1398169445
H  H70  1  0.38800000  0.22740000  0.52830000  1.0 0.1398169445
H  H71  1  0.77260000  0.61200000  0.02830000  1.0 0.1398169445
H  H72  1  0.61200000  0.77260000  0.47170000  1.0 0.1398169445
H  H73  1  0.14150000  0.39470000  0.95820000  1.0 0.0997424694
H  H74  1  0.39470000  0.14150000  0.54180000  1.0 0.0997424694
H  H75  1  0.85850000  0.60530000  0.04180000  1.0 0.0997424694
H  H76  1  0.60530000  0.85850000  0.45820000  1.0 0.0997424694
H  H77  1  0.00840000  0.49060000  0.01860000  1.0 0.1095093163
H  H78  1  0.49060000  0.00840000  0.48140000  1.0 0.1095093163
H  H79  1  0.99160000  0.50940000  0.98140000  1.0 0.1095093163
H  H80  1  0.50940000  0.99160000  0.51860000  1.0 0.1095093163
C  C1  1  0.08600000  0.57620000  0.57790000  1.0 0.6341300448
C  C2  1  0.57620000  0.08600000  0.92210000  1.0 0.6341300448
C  C3  1  0.91400000  0.42380000  0.42210000  1.0 0.6341300448
C  C4  1  0.42380000  0.91400000  0.07790000  1.0 0.6341300448
C  C5  1  0.12730000  0.62190000  0.62060000  1.0 -0.0089979138
C  C6  1  0.62190000  0.12730000  0.87940000  1.0 -0.0089979138
C  C7  1  0.87270000  0.37810000  0.37940000  1.0 -0.0089979138
C  C8  1  0.37810000  0.87270000  0.12060000  1.0 -0.0089979138
C  C9  1  0.13040000  0.68720000  0.56830000  1.0 -0.1286970685
C  C10  1  0.68720000  0.13040000  0.93170000  1.0 -0.1286970685
C  C11  1  0.86960000  0.31280000  0.43170000  1.0 -0.1286970685
C  C12  1  0.31280000  0.86960000  0.06830000  1.0 -0.1286970685
C  C13  1  0.16390000  0.73430000  0.60900000  1.0 0.0497386902
C  C14  1  0.73430000  0.16390000  0.89100000  1.0 0.0497386902
C  C15  1  0.83610000  0.26570000  0.39100000  1.0 0.0497386902
C  C16  1  0.26570000  0.83610000  0.10900000  1.0 0.0497386902
C  C17  1  0.19570000  0.72090000  0.69830000  1.0 0.0164944822
C  C18  1  0.72090000  0.19570000  0.80170000  1.0 0.0164944822
C  C19  1  0.80430000  0.27910000  0.30170000  1.0 0.0164944822
C  C20  1  0.27910000  0.80430000  0.19830000  1.0 0.0164944822
C  C21  1  0.19220000  0.65580000  0.74450000  1.0 0.0400763954
C  C22  1  0.65580000  0.19220000  0.75550000  1.0 0.0400763954
C  C23  1  0.80780000  0.34420000  0.25550000  1.0 0.0400763954
C  C24  1  0.34420000  0.80780000  0.24450000  1.0 0.0400763954
C  C25  1  0.15890000  0.60550000  0.70690000  1.0 -0.1195931864
C  C26  1  0.60550000  0.15890000  0.79310000  1.0 -0.1195931864
C  C27  1  0.84110000  0.39450000  0.29310000  1.0 -0.1195931864
C  C28  1  0.39450000  0.84110000  0.20690000  1.0 -0.1195931864
C  C29  1  0.23690000  0.76970000  0.73360000  1.0 0.0164944822
C  C30  1  0.76970000  0.23690000  0.76640000  1.0 0.0164944822
C  C31  1  0.76310000  0.23030000  0.26640000  1.0 0.0164944822
C  C32  1  0.23030000  0.76310000  0.23360000  1.0 0.0164944822
C  C33  1  0.31110000  0.75810000  0.72990000  1.0 0.0497386902
C  C34  1  0.75810000  0.31110000  0.77010000  1.0 0.0497386902
C  C35  1  0.68890000  0.24190000  0.27010000  1.0 0.0497386902
C  C36  1  0.24190000  0.68890000  0.22990000  1.0 0.0497386902
C  C37  1  0.35020000  0.80700000  0.75790000  1.0 -0.1195931864
C  C38  1  0.80700000  0.35020000  0.74210000  1.0 -0.1195931864
C  C39  1  0.64980000  0.19300000  0.24210000  1.0 -0.1195931864
C  C40  1  0.19300000  0.64980000  0.25790000  1.0 -0.1195931864
C  C41  1  0.30970000  0.87410000  0.78920000  1.0 -0.0089979138
C  C42  1  0.87410000  0.30970000  0.71080000  1.0 -0.0089979138
C  C43  1  0.69030000  0.12590000  0.21080000  1.0 -0.0089979138
C  C44  1  0.12590000  0.69030000  0.28920000  1.0 -0.0089979138
C  C45  1  0.23300000  0.88800000  0.79340000  1.0 -0.0967808376
C  C46  1  0.88800000  0.23300000  0.70660000  1.0 -0.0967808376
C  C47  1  0.76700000  0.11200000  0.20660000  1.0 -0.0967808376
C  C48  1  0.11200000  0.76700000  0.29340000  1.0 -0.0967808376
C  C49  1  0.19920000  0.83840000  0.76860000  1.0 0.0400763954
C  C50  1  0.83840000  0.19920000  0.73140000  1.0 0.0400763954
C  C51  1  0.80080000  0.16160000  0.23140000  1.0 0.0400763954
C  C52  1  0.16160000  0.80080000  0.26860000  1.0 0.0400763954
C  C53  1  0.35000000  0.92460000  0.81800000  1.0 0.5569230159
C  C54  1  0.92460000  0.35000000  0.68200000  1.0 0.5569230159
C  C55  1  0.65000000  0.07540000  0.18200000  1.0 0.5569230159
C  C56  1  0.07540000  0.65000000  0.31800000  1.0 0.5569230159
C  C57  1  0.11150000  0.38630000  0.48290000  1.0 0.6041185101
C  C58  1  0.38630000  0.11150000  0.01710000  1.0 0.6041185101
C  C59  1  0.88850000  0.61370000  0.51710000  1.0 0.6041185101
C  C60  1  0.61370000  0.88850000  0.98290000  1.0 0.6041185101
C  C61  1  0.16300000  0.35120000  0.41830000  1.0 0.0164944822
C  C62  1  0.35120000  0.16300000  0.08170000  1.0 0.0164944822
C  C63  1  0.83700000  0.64880000  0.58170000  1.0 0.0164944822
C  C64  1  0.64880000  0.83700000  0.91830000  1.0 0.0164944822
C  C65  1  0.19210000  0.27530000  0.42300000  1.0 -0.1419799188
C  C66  1  0.27530000  0.19210000  0.07700000  1.0 -0.1419799188
C  C67  1  0.80790000  0.72470000  0.57700000  1.0 -0.1419799188
C  C68  1  0.72470000  0.80790000  0.92300000  1.0 -0.1419799188
C  C69  1  0.23350000  0.24010000  0.36120000  1.0 0.0400763954
C  C70  1  0.24010000  0.23350000  0.13880000  1.0 0.0400763954
C  C71  1  0.76650000  0.75990000  0.63880000  1.0 0.0400763954
C  C72  1  0.75990000  0.76650000  0.86120000  1.0 0.0400763954
C  C73  1  0.24550000  0.28390000  0.28620000  1.0 -0.0388134132
C  C74  1  0.28390000  0.24550000  0.21380000  1.0 -0.0388134132
C  C75  1  0.75450000  0.71610000  0.71380000  1.0 -0.0388134132
C  C76  1  0.71610000  0.75450000  0.78620000  1.0 -0.0388134132
C  C77  1  0.21890000  0.36190000  0.28180000  1.0 0.0093084229
C  C78  1  0.36190000  0.21890000  0.21820000  1.0 0.0093084229
C  C79  1  0.78110000  0.63810000  0.71820000  1.0 0.0093084229
C  C80  1  0.63810000  0.78110000  0.78180000  1.0 0.0093084229
C  C81  1  0.17610000  0.39590000  0.34670000  1.0 -0.0967808376
C  C82  1  0.39590000  0.17610000  0.15330000  1.0 -0.0967808376
C  C83  1  0.82390000  0.60410000  0.65330000  1.0 -0.0967808376
C  C84  1  0.60410000  0.82390000  0.84670000  1.0 -0.0967808376
C  C85  1  0.99930000  0.49750000  0.81990000  1.0 0.0997424694
C  C86  1  0.49750000  0.99930000  0.68010000  1.0 0.0997424694
C  C87  1  0.00070000  0.50250000  0.18010000  1.0 0.0997424694
C  C88  1  0.50250000  0.00070000  0.31990000  1.0 0.0997424694
C  C89  1  0.05110000  0.58510000  0.86340000  1.0 -0.3514420549
C  C90  1  0.58510000  0.05110000  0.63660000  1.0 -0.3514420549
C  C91  1  0.94890000  0.41490000  0.13660000  1.0 -0.3514420549
C  C92  1  0.41490000  0.94890000  0.36340000  1.0 -0.3514420549
C  C93  1  0.04370000  0.50970000  0.99110000  1.0 -0.2416469986
C  C94  1  0.50970000  0.04370000  0.50890000  1.0 -0.2416469986
C  C95  1  0.95630000  0.49030000  0.00890000  1.0 -0.2416469986
C  C96  1  0.49030000  0.95630000  0.49110000  1.0 -0.2416469986
C  C97  1  0.14680000  0.38280000  0.79800000  1.0 0.3016405916
C  C98  1  0.38280000  0.14680000  0.70200000  1.0 0.3016405916
C  C99  1  0.85320000  0.61720000  0.20200000  1.0 0.3016405916
C  C100  1  0.61720000  0.85320000  0.29800000  1.0 0.3016405916
C  C101  1  0.26800000  0.26800000  0.87200000  1.0 -0.3514420549
C  C102  1  0.26800000  0.26800000  0.62800000  1.0 -0.3514420549
C  C103  1  0.73200000  0.73200000  0.12800000  1.0 -0.3514420549
C  C104  1  0.73200000  0.73200000  0.37200000  1.0 -0.3514420549
C  C105  1  0.19200000  0.36200000  0.95900000  1.0 -0.3612654927
C  C106  1  0.36200000  0.19200000  0.54100000  1.0 -0.3612654927
C  C107  1  0.80800000  0.63800000  0.04100000  1.0 -0.3612654927
C  C108  1  0.63800000  0.80800000  0.45900000  1.0 -0.3612654927
N  N1  1  0.16260000  0.80200000  0.54950000  1.0 0.5243215403
N  N2  1  0.80200000  0.16260000  0.95050000  1.0 0.5243215403
N  N3  1  0.83740000  0.19800000  0.45050000  1.0 0.5243215403
N  N4  1  0.19800000  0.83740000  0.04950000  1.0 0.5243215403
N  N5  1  0.22690000  0.63530000  0.83790000  1.0 0.5011472543
N  N6  1  0.63530000  0.22690000  0.66210000  1.0 0.5011472543
N  N7  1  0.77310000  0.36470000  0.16210000  1.0 0.5011472543
N  N8  1  0.36470000  0.77310000  0.33790000  1.0 0.5011472543
N  N9  1  0.35720000  0.69220000  0.69090000  1.0 0.5350355943
N  N10  1  0.69220000  0.35720000  0.80910000  1.0 0.5344078978
N  N11  1  0.64280000  0.30780000  0.30910000  1.0 0.5350355943
N  N12  1  0.30780000  0.64280000  0.19090000  1.0 0.5350355943
N  N13  1  0.11810000  0.85750000  0.77660000  1.0 0.5145322522
N  N14  1  0.85750000  0.11810000  0.72340000  1.0 0.5145322522
N  N15  1  0.88190000  0.14250000  0.22340000  1.0 0.5145322522
N  N16  1  0.14250000  0.88190000  0.27660000  1.0 0.5145322522
N  N17  1  0.26460000  0.15540000  0.37660000  1.0 0.4872707715
N  N18  1  0.15540000  0.26460000  0.12340000  1.0 0.4872707715
N  N19  1  0.73540000  0.84460000  0.62340000  1.0 0.4872707715
N  N20  1  0.84460000  0.73540000  0.87660000  1.0 0.4872707715
N  N21  1  0.23760000  0.39940000  0.20530000  1.0 0.4656550279
N  N22  1  0.39940000  0.23760000  0.29470000  1.0 0.4656550279
N  N23  1  0.76240000  0.60060000  0.79470000  1.0 0.4656550279
N  N24  1  0.60060000  0.76240000  0.70530000  1.0 0.4656550279
N  N25  1  0.02250000  0.52310000  0.89540000  1.0 -0.0698856423
N  N26  1  0.52310000  0.02250000  0.60460000  1.0 -0.0698856423
N  N27  1  0.97750000  0.47690000  0.10460000  1.0 -0.0698856423
N  N28  1  0.47690000  0.97750000  0.39540000  1.0 -0.0698856423
N  N29  1  0.20000000  0.33400000  0.87200000  1.0 0.0400763954
N  N30  1  0.33400000  0.20000000  0.62800000  1.0 0.0400763954
N  N31  1  0.80000000  0.66600000  0.12800000  1.0 0.0400763954
N  N32  1  0.66600000  0.80000000  0.37200000  1.0 0.0400763954
O  O1  1  0.09120000  0.51540000  0.62490000  1.0 -0.6445037881
O  O2  1  0.51540000  0.09120000  0.87510000  1.0 -0.6445037881
O  O3  1  0.90880000  0.48460000  0.37510000  1.0 -0.6445037881
O  O4  1  0.48460000  0.90880000  0.12490000  1.0 -0.6445037881
O  O5  1  0.05250000  0.59990000  0.50180000  1.0 -0.6083043674
O  O6  1  0.59990000  0.05250000  0.99820000  1.0 -0.6083043674
O  O7  1  0.94750000  0.40010000  0.49820000  1.0 -0.6083043674
O  O8  1  0.40010000  0.94750000  0.00180000  1.0 -0.6083043674
O  O9  1  0.42270000  0.90010000  0.82890000  1.0 -0.6472429196
O  O10  1  0.90010000  0.42270000  0.67110000  1.0 -0.6472429196
O  O11  1  0.57730000  0.09990000  0.17110000  1.0 -0.6472429196
O  O12  1  0.09990000  0.57730000  0.32890000  1.0 -0.6472429196
O  O13  1  0.31290000  0.98930000  0.83050000  1.0 -0.5639086524
O  O14  1  0.98930000  0.31290000  0.66950000  1.0 -0.5639086524
O  O15  1  0.68710000  0.01070000  0.16950000  1.0 -0.5639086524
O  O16  1  0.01070000  0.68710000  0.33050000  1.0 -0.5639086524
O  O17  1  0.16480000  0.80020000  0.47430000  1.0 -0.2642891208
O  O18  1  0.80020000  0.16480000  0.02570000  1.0 -0.2642891208
O  O19  1  0.83520000  0.19980000  0.52570000  1.0 -0.2642891208
O  O20  1  0.19980000  0.83520000  0.97430000  1.0 -0.2642891208
O  O21  1  0.14370000  0.86310000  0.58470000  1.0 -0.3514420549
O  O22  1  0.86310000  0.14370000  0.91530000  1.0 -0.3514420549
O  O23  1  0.85630000  0.13690000  0.41530000  1.0 -0.3514420549
O  O24  1  0.13690000  0.85630000  0.08470000  1.0 -0.3514420549
O  O25  1  0.24390000  0.57130000  0.86640000  1.0 -0.2642891208
O  O26  1  0.57130000  0.24390000  0.63360000  1.0 -0.2656768421
O  O27  1  0.75610000  0.42870000  0.13360000  1.0 -0.2656768421
O  O28  1  0.42870000  0.75610000  0.36640000  1.0 -0.2656768421
O  O29  1  0.24040000  0.68060000  0.87950000  1.0 -0.2848910848
O  O30  1  0.68060000  0.24040000  0.62050000  1.0 -0.2848910848
O  O31  1  0.75960000  0.31940000  0.12050000  1.0 -0.2848910848
O  O32  1  0.31940000  0.75960000  0.37950000  1.0 -0.2867840389
O  O33  1  0.40840000  0.69940000  0.65000000  1.0 -0.3127900819
O  O34  1  0.69940000  0.40840000  0.85000000  1.0 -0.3127900819
O  O35  1  0.59160000  0.30060000  0.35000000  1.0 -0.3127900819
O  O36  1  0.30060000  0.59160000  0.15000000  1.0 -0.3127900819
O  O37  1  0.34470000  0.63030000  0.71480000  1.0 -0.3612654927
O  O38  1  0.63030000  0.34470000  0.78520000  1.0 -0.3612654927
O  O39  1  0.65530000  0.36970000  0.28520000  1.0 -0.3612654927
O  O40  1  0.36970000  0.65530000  0.21480000  1.0 -0.3612654927
O  O41  1  0.09130000  0.80630000  0.78120000  1.0 -0.3212630311
O  O42  1  0.80630000  0.09130000  0.71880000  1.0 -0.3212630311
O  O43  1  0.90870000  0.19370000  0.21880000  1.0 -0.3212630311
O  O44  1  0.19370000  0.90870000  0.28120000  1.0 -0.3212630311
O  O45  1  0.08400000  0.92180000  0.78010000  1.0 -0.2336641299
O  O46  1  0.92180000  0.08400000  0.71990000  1.0 -0.2336641299
O  O47  1  0.91600000  0.07820000  0.21990000  1.0 -0.2336641299
O  O48  1  0.07820000  0.91600000  0.28010000  1.0 -0.2336641299
O  O49  1  0.06770000  0.45350000  0.46180000  1.0 -0.7024537484
O  O50  1  0.45350000  0.06770000  0.03820000  1.0 -0.7024537484
O  O51  1  0.93230000  0.54650000  0.53820000  1.0 -0.7024537484
O  O52  1  0.54650000  0.93230000  0.96180000  1.0 -0.7024537484
O  O53  1  0.11450000  0.34730000  0.55330000  1.0 -0.551011161
O  O54  1  0.34730000  0.11450000  0.94670000  1.0 -0.551011161
O  O55  1  0.88550000  0.65270000  0.44670000  1.0 -0.551011161
O  O56  1  0.65270000  0.88550000  0.05330000  1.0 -0.551011161
O  O57  1  0.25950000  0.12250000  0.44490000  1.0 -0.2336641299
O  O58  1  0.12250000  0.25950000  0.05510000  1.0 -0.2336641299
O  O59  1  0.74050000  0.87750000  0.55510000  1.0 -0.2336641299
O  O60  1  0.87750000  0.74050000  0.94490000  1.0 -0.2336641299
O  O61  1  0.32490000  0.12610000  0.35100000  1.0 -0.2867840389
O  O62  1  0.12610000  0.32490000  0.14900000  1.0 -0.2867840389
O  O63  1  0.67510000  0.87390000  0.64900000  1.0 -0.2867840389
O  O64  1  0.87390000  0.67510000  0.85100000  1.0 -0.2867840389
O  O65  1  0.23020000  0.38980000  0.13030000  1.0 -0.2506132731
O  O66  1  0.38980000  0.23020000  0.36970000  1.0 -0.2506132731
O  O67  1  0.76980000  0.61020000  0.86970000  1.0 -0.2506132731
O  O68  1  0.61020000  0.76980000  0.63030000  1.0 -0.2506132731
O  O69  1  0.22640000  0.46500000  0.21400000  1.0 -0.1952299001
O  O70  1  0.46500000  0.22640000  0.28600000  1.0 -0.1952299001
O  O71  1  0.77360000  0.53500000  0.78600000  1.0 -0.1952299001
O  O72  1  0.53500000  0.77360000  0.71400000  1.0 -0.1952299001
O  O73  1  0.98790000  0.50190000  0.74260000  1.0 -0.4160227189
O  O74  1  0.50190000  0.98790000  0.75740000  1.0 -0.4160227189
O  O75  1  0.01210000  0.49810000  0.25740000  1.0 -0.4160227189
O  O76  1  0.49810000  0.01210000  0.24260000  1.0 -0.4160227189
O  O77  1  0.10900000  0.36860000  0.73720000  1.0 -0.4869501153
O  O78  1  0.36860000  0.10900000  0.76280000  1.0 -0.4869501153
O  O79  1  0.89100000  0.63140000  0.26280000  1.0 -0.4869501153
O  O80  1  0.63140000  0.89100000  0.23720000  1.0 -0.4869501153
