# DDEC6 charges by PACMAN v1.1 (https://github.com/mtap-research/PACMAN-charge/)
data_XEGROT_ASR_pacman
_symmetry_space_group_name_H-M   'P 1'
_cell_length_a   14.21800000
_cell_length_b   14.60100000
_cell_length_c   19.99100000
_cell_angle_alpha   108.29200000
_cell_angle_beta   90.33500000
_cell_angle_gamma   107.52500000
_symmetry_Int_Tables_number   1
_chemical_formula_structural   Ag8Mo12PH25C35(N2O3)10
_chemical_formula_sum   'Ag16 Mo24 P2 H50 C70 N40 O60'
_cell_volume   3734.32280779
_cell_formula_units_Z   2
loop_
 _symmetry_equiv_pos_site_id
 _symmetry_equiv_pos_as_xyz
  1  'x, y, z'
loop_
 _atom_site_type_symbol
 _atom_site_label
 _atom_site_symmetry_multiplicity
 _atom_site_fract_x
 _atom_site_fract_y
 _atom_site_fract_z
 _atom_site_occupancy
 _atom_site_charge
Ag  Ag1  1  0.86367000  0.32297000  0.33333333  1.0 0.3304286796
Ag  Ag2  1  0.09981000  0.40570000  0.35426000  1.0 0.2602663386
Ag  Ag3  1  0.19023000  0.50652000  0.20430000  1.0 0.2602663386
Ag  Ag4  1  0.26561000  0.02209000  0.23969000  1.0 0.2789688705
Ag  Ag5  1  0.98188000  0.40251000  0.04157000  1.0 0.2789688705
Ag  Ag6  1  0.28269000  0.78082000  0.26916000  1.0 0.2789688705
Ag  Ag7  1  0.55670000  0.14021000  0.52897000  1.0 0.2976545442
Ag  Ag8  1  0.00552000  0.20716000  0.45248000  1.0 0.4431428361
Ag  Ag9  1  0.13633000  0.67703000  0.66666667  1.0 0.3304286796
Ag  Ag10  1  0.90019000  0.59430000  0.64574000  1.0 0.2602663386
Ag  Ag11  1  0.80977000  0.49348000  0.79570000  1.0 0.2602663386
Ag  Ag12  1  0.73439000  0.97791000  0.76031000  1.0 0.2789688705
Ag  Ag13  1  0.01812000  0.59749000  0.95843000  1.0 0.2789688705
Ag  Ag14  1  0.71731000  0.21918000  0.73084000  1.0 0.2789688705
Ag  Ag15  1  0.44330000  0.85979000  0.47103000  1.0 0.2976545442
Ag  Ag16  1  0.99448000  0.79284000  0.54752000  1.0 0.4431428361
Mo  Mo1  1  0.78041000  0.61416000  0.05509000  1.0 1.9997674772
Mo  Mo2  1  0.60541000  0.50185000  0.14584000  1.0 2.0498569954
Mo  Mo3  1  0.56706000  0.65573000  0.32432000  1.0 1.9717200148
Mo  Mo4  1  0.58946000  0.93742000  0.21195000  1.0 1.9936523188
Mo  Mo5  1  0.98602000  0.86504000  0.26009000  1.0 2.140275215
Mo  Mo6  1  0.81485000  0.76503000  0.37891000  1.0 2.1831495512
Mo  Mo7  1  0.88980000  0.89579000  0.11516000  1.0 1.9343400944
Mo  Mo8  1  0.85706000  0.03394000  0.27862000  1.0 2.1938551415
Mo  Mo9  1  0.84942000  0.58868000  0.20904000  1.0 2.08984146
Mo  Mo10  1  0.46543000  0.68262000  0.16392000  1.0 1.9997674772
Mo  Mo11  1  0.62161000  0.77528000  0.05603000  1.0 1.981771007
Mo  Mo12  1  0.67163000  0.91469000  0.38056000  1.0 2.1245809544
Mo  Mo13  1  0.21959000  0.38584000  0.94491000  1.0 1.9997674772
Mo  Mo14  1  0.39459000  0.49815000  0.85416000  1.0 2.0429061402
Mo  Mo15  1  0.43294000  0.34427000  0.67568000  1.0 1.9717200148
Mo  Mo16  1  0.41054000  0.06258000  0.78805000  1.0 1.981771007
Mo  Mo17  1  0.01398000  0.13496000  0.73991000  1.0 2.140275215
Mo  Mo18  1  0.18515000  0.23497000  0.62109000  1.0 2.1831495512
Mo  Mo19  1  0.11020000  0.10421000  0.88484000  1.0 1.9377158631
Mo  Mo20  1  0.14294000  0.96606000  0.72138000  1.0 2.1938551415
Mo  Mo21  1  0.15058000  0.41132000  0.79096000  1.0 2.08984146
Mo  Mo22  1  0.53457000  0.31738000  0.83608000  1.0 1.9936523188
Mo  Mo23  1  0.37839000  0.22472000  0.94397000  1.0 1.981771007
Mo  Mo24  1  0.32837000  0.08531000  0.61944000  1.0 2.1245809544
P  P1  1  0.72480000  0.76960000  0.21572000  1.0 1.3967659819
P  P2  1  0.27520000  0.23040000  0.78428000  1.0 1.3967659819
H  H1  1  0.30860000  0.37560000  0.09320000  1.0 0.1010997756
H  H2  1  0.19050000  0.22010000  0.06270000  1.0 0.1010997756
H  H3  1  0.36530000  0.46960000  0.20870000  1.0 0.0863207813
H  H4  1  0.29060000  0.62720000  0.69210000  1.0 0.1171102026
H  H5  1  0.31080000  0.78450000  0.55850000  1.0 0.1010997756
H  H6  1  0.24990000  0.47840000  0.59760000  1.0 0.1383548948
H  H7  1  0.59300000  0.04930000  0.08840000  1.0 0.1010997756
H  H8  1  0.13800000  0.14390000  0.14810000  1.0 0.1171102026
H  H9  1  0.30460000  0.40000000  0.29830000  1.0 0.1010997756
H  H10  1  0.46680000  0.20540000  0.30210000  1.0 0.1010997756
H  H11  1  0.47900000  0.37410000  0.32100000  1.0 0.1010997756
H  H12  1  0.24010000  0.47900000  0.48120000  1.0 0.1010997756
H  H13  1  0.74720000  0.12420000  0.15180000  1.0 0.1383548948
H  H14  1  0.79450000  0.35400000  0.07260000  1.0 0.1010997756
H  H15  1  0.14990000  0.96770000  0.01740000  1.0 0.10781384
H  H16  1  0.43890000  0.46900000  0.42540000  1.0 0.1010997756
H  H17  1  0.63900000  0.27690000  0.00820000  1.0 0.1306135852
H  H18  1  0.31640000  0.77820000  0.67270000  1.0 0.1010997756
H  H19  1  0.30210000  0.07600000  0.07330000  1.0 0.1010997756
H  H20  1  0.32980000  0.87420000  0.16410000  1.0 0.1010997756
H  H21  1  0.53860000  0.12480000  0.01610000  1.0 0.1010997756
H  H22  1  0.38950000  0.39780000  0.51310000  1.0 0.1010997756
H  H23  1  0.39460000  0.02890000  0.14630000  1.0 0.1010997756
H  H24  1  0.38460000  0.23220000  0.49770000  1.0 0.1171102026
H  H25  1  0.07990000  0.81560000  0.03970000  1.0 0.1010997756
H  H26  1  0.69140000  0.62440000  0.90680000  1.0 0.1010997756
H  H27  1  0.80950000  0.77990000  0.93730000  1.0 0.1010997756
H  H28  1  0.63470000  0.53040000  0.79130000  1.0 0.0863207813
H  H29  1  0.70940000  0.37280000  0.30790000  1.0 0.1171102026
H  H30  1  0.68920000  0.21550000  0.44150000  1.0 0.1010997756
H  H31  1  0.75010000  0.52160000  0.40240000  1.0 0.1383548948
H  H32  1  0.40700000  0.95070000  0.91160000  1.0 0.1010997756
H  H33  1  0.86200000  0.85610000  0.85190000  1.0 0.1171102026
H  H34  1  0.69540000  0.60000000  0.70170000  1.0 0.1010997756
H  H35  1  0.53320000  0.79460000  0.69790000  1.0 0.1010997756
H  H36  1  0.52100000  0.62590000  0.67900000  1.0 0.1010997756
H  H37  1  0.75990000  0.52100000  0.51880000  1.0 0.1010997756
H  H38  1  0.25280000  0.87580000  0.84820000  1.0 0.1383548948
H  H39  1  0.20550000  0.64600000  0.92740000  1.0 0.1010997756
H  H40  1  0.85010000  0.03230000  0.98260000  1.0 0.10781384
H  H41  1  0.56110000  0.53100000  0.57460000  1.0 0.1010997756
H  H42  1  0.36100000  0.72310000  0.99180000  1.0 0.1306135852
H  H43  1  0.68360000  0.22180000  0.32730000  1.0 0.1010997756
H  H44  1  0.69790000  0.92400000  0.92670000  1.0 0.1010997756
H  H45  1  0.67020000  0.12580000  0.83590000  1.0 0.1010997756
H  H46  1  0.46140000  0.87520000  0.98390000  1.0 0.1010997756
H  H47  1  0.61050000  0.60220000  0.48690000  1.0 0.1010997756
H  H48  1  0.60540000  0.97110000  0.85370000  1.0 0.1010997756
H  H49  1  0.61540000  0.76780000  0.50230000  1.0 0.1171102026
H  H50  1  0.92010000  0.18440000  0.96030000  1.0 0.1010997756
C  C1  1  0.18700000  0.22360000  0.28960000  1.0 0.239659572
C  C2  1  0.28470000  0.34890000  0.12860000  1.0 -0.1414687526
C  C3  1  0.21580000  0.25470000  0.11000000  1.0 -0.1202481676
C  C4  1  0.31930000  0.40480000  0.19690000  1.0 -0.1292938765
C  C5  1  0.28610000  0.62870000  0.64600000  1.0 -0.1503350389
C  C6  1  0.29900000  0.72220000  0.56570000  1.0 -0.1617673289
C  C7  1  0.26260000  0.53990000  0.58930000  1.0 -0.1033480231
C  C8  1  0.63400000  0.11060000  0.08520000  1.0 -0.1105072289
C  C9  1  0.18270000  0.20950000  0.16110000  1.0 -0.1414687526
C  C10  1  0.28350000  0.36190000  0.25080000  1.0 -0.1617673289
C  C11  1  0.45270000  0.24440000  0.34510000  1.0 -0.1503350389
C  C12  1  0.21820000  0.26490000  0.23280000  1.0 0.0112634108
C  C13  1  0.45890000  0.34530000  0.35610000  1.0 -0.1033480231
C  C14  1  0.25710000  0.53980000  0.51910000  1.0 -0.1684167635
C  C15  1  0.19550000  0.82800000  0.10400000  1.0 0.0112634108
C  C16  1  0.72590000  0.15510000  0.12320000  1.0 -0.1414687526
C  C17  1  0.75400000  0.29250000  0.07550000  1.0 -0.1503350389
C  C18  1  0.18490000  0.94990000  0.04800000  1.0 -0.1105072289
C  C19  1  0.43540000  0.40190000  0.41840000  1.0 -0.1202481676
C  C20  1  0.66070000  0.24650000  0.03700000  1.0 -0.1105072289
C  C21  1  0.30250000  0.71830000  0.63440000  1.0 -0.1414687526
C  C22  1  0.27570000  0.63610000  0.43400000  1.0 0.239659572
C  C23  1  0.27620000  0.01370000  0.08040000  1.0 -0.1292938765
C  C24  1  0.29280000  0.89360000  0.13580000  1.0 -0.2020704847
C  C25  1  0.60110000  0.15610000  0.04180000  1.0 -0.1202481676
C  C26  1  0.40640000  0.35930000  0.47120000  1.0 -0.1033480231
C  C27  1  0.88690000  0.29550000  0.15720000  1.0 0.239659572
C  C28  1  0.33190000  0.98560000  0.12470000  1.0 -0.1503350389
C  C29  1  0.40250000  0.26020000  0.46200000  1.0 -0.1414687526
C  C30  1  0.78770000  0.24720000  0.11870000  1.0 0.0112634108
C  C31  1  0.27800000  0.63300000  0.50750000  1.0 0.0250260953
C  C32  1  0.41590000  0.09610000  0.38660000  1.0 0.239659572
C  C33  1  0.14330000  0.85750000  0.06070000  1.0 -0.1503350389
C  C34  1  0.42590000  0.20290000  0.39760000  1.0 0.0112634108
C  C35  1  0.15480000  0.72970000  0.11430000  1.0 0.239659572
C  C36  1  0.81300000  0.77640000  0.71040000  1.0 0.239659572
C  C37  1  0.71530000  0.65110000  0.87140000  1.0 -0.1414687526
C  C38  1  0.78420000  0.74530000  0.89000000  1.0 -0.1202481676
C  C39  1  0.68070000  0.59520000  0.80310000  1.0 -0.1292938765
C  C40  1  0.71390000  0.37130000  0.35400000  1.0 -0.1503350389
C  C41  1  0.70100000  0.27780000  0.43430000  1.0 -0.1617673289
C  C42  1  0.73740000  0.46010000  0.41070000  1.0 -0.1033480231
C  C43  1  0.36600000  0.88940000  0.91480000  1.0 -0.1105072289
C  C44  1  0.81730000  0.79050000  0.83890000  1.0 -0.1414687526
C  C45  1  0.71650000  0.63810000  0.74920000  1.0 -0.1617673289
C  C46  1  0.54730000  0.75560000  0.65490000  1.0 -0.1503350389
C  C47  1  0.78180000  0.73510000  0.76720000  1.0 0.0112634108
C  C48  1  0.54110000  0.65470000  0.64390000  1.0 -0.1033480231
C  C49  1  0.74290000  0.46020000  0.48090000  1.0 -0.1684167635
C  C50  1  0.80450000  0.17200000  0.89600000  1.0 0.0112634108
C  C51  1  0.27410000  0.84490000  0.87680000  1.0 -0.1414687526
C  C52  1  0.24600000  0.70750000  0.92450000  1.0 -0.1503350389
C  C53  1  0.81510000  0.05010000  0.95200000  1.0 -0.1105072289
C  C54  1  0.56460000  0.59810000  0.58160000  1.0 -0.1202481676
C  C55  1  0.33930000  0.75350000  0.96300000  1.0 -0.1105072289
C  C56  1  0.69750000  0.28170000  0.36560000  1.0 -0.1414687526
C  C57  1  0.72430000  0.36390000  0.56600000  1.0 0.239659572
C  C58  1  0.72380000  0.98630000  0.91960000  1.0 -0.1292938765
C  C59  1  0.70720000  0.10640000  0.86420000  1.0 -0.2020704847
C  C60  1  0.39890000  0.84390000  0.95820000  1.0 -0.1202481676
C  C61  1  0.59360000  0.64070000  0.52880000  1.0 -0.1033480231
C  C62  1  0.11310000  0.70450000  0.84280000  1.0 0.239659572
C  C63  1  0.66810000  0.01440000  0.87530000  1.0 -0.1503350389
C  C64  1  0.59750000  0.73980000  0.53800000  1.0 -0.1414687526
C  C65  1  0.21230000  0.75280000  0.88130000  1.0 0.0153448574
C  C66  1  0.72200000  0.36700000  0.49250000  1.0 0.0250260953
C  C67  1  0.58410000  0.90390000  0.61340000  1.0 0.239659572
C  C68  1  0.85670000  0.14250000  0.93930000  1.0 -0.1503350389
C  C69  1  0.57410000  0.79710000  0.60240000  1.0 0.0112634108
C  C70  1  0.84520000  0.27030000  0.88570000  1.0 0.239659572
N  N1  1  0.13370000  0.21390000  0.38760000  1.0 -0.0258608585
N  N2  1  0.36850000  0.93420000  0.34230000  1.0 -0.0195699835
N  N3  1  0.04160000  0.37520000  0.18490000  1.0 -0.0417761683
N  N4  1  0.07510000  0.57190000  0.09580000  1.0 -0.0417761683
N  N5  1  0.16570000  0.13740000  0.35980000  1.0 -0.0553781714
N  N6  1  0.14700000  0.27060000  0.34490000  1.0 -0.2317773056
N  N7  1  0.29930000  0.68790000  0.34570000  1.0 -0.0417761683
N  N8  1  0.18140000  0.70700000  0.17040000  1.0 -0.2483251916
N  N9  1  0.36250000  0.01760000  0.33070000  1.0 -0.2483251916
N  N10  1  0.01010000  0.35190000  0.23870000  1.0 -0.0417761683
N  N11  1  0.42390000  0.95980000  0.40230000  1.0 -0.0679484418
N  N12  1  0.91250000  0.30320000  0.22490000  1.0 -0.2116708782
N  N13  1  0.45350000  0.06150000  0.43090000  1.0 -0.2317773056
N  N14  1  0.24430000  0.59300000  0.32280000  1.0 -0.0417761683
N  N15  1  0.96660000  0.34170000  0.13230000  1.0 -0.2404261928
N  N16  1  0.22590000  0.55780000  0.37640000  1.0 -0.2317773056
N  N17  1  0.08910000  0.64640000  0.06730000  1.0 -0.2184088406
N  N18  1  0.13010000  0.60780000  0.15690000  1.0 -0.0679484418
N  N19  1  0.32050000  0.71660000  0.41530000  1.0 -0.2184088406
N  N20  1  0.19940000  0.13930000  0.29680000  1.0 -0.2483251916
N  N21  1  0.86630000  0.78610000  0.61240000  1.0 -0.0258608585
N  N22  1  0.63150000  0.06580000  0.65770000  1.0 -0.0195699835
N  N23  1  0.95840000  0.62480000  0.81510000  1.0 -0.0417761683
N  N24  1  0.92490000  0.42810000  0.90420000  1.0 -0.0417761683
N  N25  1  0.83430000  0.86260000  0.64020000  1.0 -0.0553781714
N  N26  1  0.85300000  0.72940000  0.65510000  1.0 -0.2317773056
N  N27  1  0.70070000  0.31210000  0.65430000  1.0 -0.0417761683
N  N28  1  0.81860000  0.29300000  0.82960000  1.0 -0.2483251916
N  N29  1  0.63750000  0.98240000  0.66930000  1.0 -0.2483251916
N  N30  1  0.98990000  0.64810000  0.76130000  1.0 -0.0417761683
N  N31  1  0.57610000  0.04020000  0.59770000  1.0 -0.0679484418
N  N32  1  0.08750000  0.69680000  0.77510000  1.0 -0.2116708782
N  N33  1  0.54650000  0.93850000  0.56910000  1.0 -0.2317773056
N  N34  1  0.75570000  0.40700000  0.67720000  1.0 -0.0417761683
N  N35  1  0.03340000  0.65830000  0.86770000  1.0 -0.2404261928
N  N36  1  0.77410000  0.44220000  0.62360000  1.0 -0.2317773056
N  N37  1  0.91090000  0.35360000  0.93270000  1.0 -0.2184088406
N  N38  1  0.86990000  0.39220000  0.84310000  1.0 -0.0679484418
N  N39  1  0.67950000  0.28340000  0.58470000  1.0 -0.2184088406
N  N40  1  0.80060000  0.86070000  0.70320000  1.0 -0.2483251916
O  O1  1  0.87430000  0.75120000  0.44580000  1.0 -0.634245063
O  O2  1  0.89540000  0.16310000  0.31610000  1.0 -0.689949299
O  O3  1  0.99880000  0.89010000  0.17580000  1.0 -0.8802557586
O  O4  1  0.52070000  0.57070000  0.13280000  1.0 -0.8802557586
O  O5  1  0.46830000  0.81950000  0.19530000  1.0 -0.9110862862
O  O6  1  0.49200000  0.68280000  0.25450000  1.0 -0.8802557586
O  O7  1  0.59090000  0.89840000  0.11560000  1.0 -0.8683359724
O  O8  1  0.68000000  0.67380000  0.38030000  1.0 -0.8451707613
O  O9  1  0.57730000  0.79850000  0.38500000  1.0 -0.8920806896
O  O10  1  0.85550000  0.57100000  0.10840000  1.0 -0.8996647052
O  O11  1  0.91560000  0.84230000  0.34200000  1.0 -0.8996647052
O  O12  1  0.82130000  0.85330000  0.21760000  1.0 -0.9579911929
O  O13  1  0.96710000  0.00060000  0.29940000  1.0 -0.8920806896
O  O14  1  0.67480000  0.66960000  0.03710000  1.0 -0.8996647052
O  O15  1  0.94560000  0.72600000  0.22240000  1.0 -0.8683359724
O  O16  1  0.60170000  0.92440000  0.30680000  1.0 -0.8683359724
O  O17  1  0.89800000  0.01930000  0.18350000  1.0 -0.8422183942
O  O18  1  0.76880000  0.87220000  0.42590000  1.0 -0.8802557586
O  O19  1  0.78900000  0.99250000  0.34890000  1.0 -0.8802557586
O  O20  1  0.86340000  0.74600000  0.07860000  1.0 -0.8802557586
O  O21  1  0.49790000  0.70050000  0.07170000  1.0 -0.8591066968
O  O22  1  0.82300000  0.64890000  0.30010000  1.0 -0.8591066968
O  O23  1  0.72560000  0.00620000  0.23310000  1.0 -0.8802557586
O  O24  1  0.70370000  0.77500000  0.29230000  1.0 -0.9579911929
O  O25  1  0.66550000  0.50160000  0.06380000  1.0 -0.8591066968
O  O26  1  0.63930000  0.78470000  0.17850000  1.0 -0.9540951502
O  O27  1  0.76000000  0.86580000  0.08250000  1.0 -0.8683359724
O  O28  1  0.58790000  0.55690000  0.24820000  1.0 -0.8802557586
O  O29  1  0.72750000  0.48780000  0.18480000  1.0 -0.8802557586
O  O30  1  0.73580000  0.66540000  0.17550000  1.0 -0.9709353399
O  O31  1  0.12570000  0.24880000  0.55420000  1.0 -0.634245063
O  O32  1  0.10460000  0.83690000  0.68390000  1.0 -0.689949299
O  O33  1  0.00120000  0.10990000  0.82420000  1.0 -0.8802557586
O  O34  1  0.47930000  0.42930000  0.86720000  1.0 -0.8802557586
O  O35  1  0.53170000  0.18050000  0.80470000  1.0 -0.9110862862
O  O36  1  0.50800000  0.31720000  0.74550000  1.0 -0.8802557586
O  O37  1  0.40910000  0.10160000  0.88440000  1.0 -0.8683359724
O  O38  1  0.32000000  0.32620000  0.61970000  1.0 -0.8451707613
O  O39  1  0.42270000  0.20150000  0.61500000  1.0 -0.8920806896
O  O40  1  0.14450000  0.42900000  0.89160000  1.0 -0.8996647052
O  O41  1  0.08440000  0.15770000  0.65800000  1.0 -0.8996647052
O  O42  1  0.17870000  0.14670000  0.78240000  1.0 -0.9579911929
O  O43  1  0.03290000  0.99940000  0.70060000  1.0 -0.8920806896
O  O44  1  0.32520000  0.33040000  0.96290000  1.0 -0.8996647052
O  O45  1  0.05440000  0.27400000  0.77760000  1.0 -0.8802557586
O  O46  1  0.39830000  0.07560000  0.69320000  1.0 -0.8683359724
O  O47  1  0.10200000  0.98070000  0.81650000  1.0 -0.8422183942
O  O48  1  0.23120000  0.12780000  0.57410000  1.0 -0.8802557586
O  O49  1  0.21100000  0.00750000  0.65110000  1.0 -0.8802557586
O  O50  1  0.13660000  0.25400000  0.92140000  1.0 -0.8802557586
O  O51  1  0.50210000  0.29950000  0.92830000  1.0 -0.8683359724
O  O52  1  0.17700000  0.35110000  0.69990000  1.0 -0.8591066968
O  O53  1  0.27440000  0.99380000  0.76690000  1.0 -0.8802557586
O  O54  1  0.29630000  0.22500000  0.70770000  1.0 -0.9579911929
O  O55  1  0.33450000  0.49840000  0.93620000  1.0 -0.8591066968
O  O56  1  0.36070000  0.21530000  0.82150000  1.0 -0.9540951502
O  O57  1  0.24000000  0.13420000  0.91750000  1.0 -0.8683359724
O  O58  1  0.41210000  0.44310000  0.75180000  1.0 -0.8802557586
O  O59  1  0.27250000  0.51220000  0.81520000  1.0 -0.8802557586
O  O60  1  0.26420000  0.33460000  0.82450000  1.0 -0.9709353399
