# DDEC6 charges by PACMAN v1.1 (https://github.com/mtap-research/PACMAN-charge/)
data_XEGWAK_ASR_pacman
_chemical_formula_sum              "C102 O24 F36 H48 Zn4 Co6"
_cell_length_a       21.2286
_cell_length_b       21.2286
_cell_length_c       7.6921
_cell_angle_alpha    90
_cell_angle_beta     90
_cell_angle_gamma    120

_symmetry_space_group_name_H-M    "P 1"
_symmetry_Int_Tables_number       1

loop_
  _symmetry_equiv_pos_as_xyz
  'x, y, z'

loop_
  _atom_site_type_symbol
  _atom_site_label
  _atom_site_symmetry_multiplicity
  _atom_site_fract_x
  _atom_site_fract_y
  _atom_site_fract_z
  _atom_site_occupancy
 _atom_site_charge
C   C1        1.0  0.78050  0.32330  0.00020  1.0000 0.5576647725
O   O1        1.0  0.76001  0.36121  0.07680  1.0000 -0.6320844162
F   F1        1.0  0.92850  0.23050  0.59100  1.0000 -0.2014530277
F   F2        1.0  0.99710  0.18596  0.52960  1.0000 -0.2014530277
C   C2        1.0  0.86440  0.27300  0.99780  1.0000 -0.1007785331
H   H1        1.0  0.84720  0.25460  0.88740  1.0000 0.1294607626
C   C3        1.0  0.83720  0.31120  0.08430  1.0000 -0.0261871712
F   F3        1.0  0.90100  0.15580  0.38070  1.0000 -0.2014530277
C   C4        1.0  0.91500  0.32600  0.32710  1.0000 -0.1439994629
H   H2        1.0  0.93170  0.34370  0.43820  1.0000 0.1185436631
C   C5        1.0  0.86210  0.33730  0.25040  1.0000 -0.1093930993
H   H3        1.0  0.84340  0.36240  0.31050  1.0000 0.1185436631
C   C6        1.0  0.91680  0.26180  0.07340  1.0000 -0.1521593202
H   H4        1.0  0.93480  0.23620  0.01330  1.0000 0.1141334168
C   C7        1.0  0.94300  0.28850  0.23900  1.0000 0.0741274077
C   C8        1.0  0.95610  0.21150  0.46230  1.0000 0.6576800055
O   O2        1.0  0.75810  0.29410  0.85370  1.0000 -0.529459821
C   C9        1.0  0.67670  0.45720  0.33353  1.0000 0.4763081428
O   O3        1.0  0.63879  0.39880  0.41013  1.0000 -0.6170853767
F   F4        1.0  0.76950  0.69800  0.92433  1.0000 -0.2014530277
F   F5        1.0  0.81404  0.81114  0.86293  1.0000 -0.2014530277
C   C10       1.0  0.72700  0.59140  0.33113  1.0000 -0.1007785331
H   H5        1.0  0.74540  0.59260  0.22073  1.0000 0.1294607626
C   C11       1.0  0.68880  0.52600  0.41763  1.0000 -0.0119840093
F   F6        1.0  0.84420  0.74520  0.71403  1.0000 -0.2014530277
C   C12       1.0  0.67400  0.58900  0.66043  1.0000 -0.1521593202
H   H6        1.0  0.65630  0.58800  0.77153  1.0000 0.1185436631
C   C13       1.0  0.66270  0.52480  0.58373  1.0000 -0.1170121804
H   H7        1.0  0.63760  0.48100  0.64383  1.0000 0.1185436631
C   C14       1.0  0.73820  0.65500  0.40673  1.0000 -0.1521593202
H   H8        1.0  0.76380  0.69860  0.34663  1.0000 0.1185436631
C   C15       1.0  0.71150  0.65450  0.57233  1.0000 0.0741274077
C   C16       1.0  0.78850  0.74460  0.79563  1.0000 0.6576800055
O   O4        1.0  0.70590  0.46400  0.18703  1.0000 -0.6431550178
C   C17       1.0  0.54280  0.21950  0.66687  1.0000 0.5576647725
O   O5        1.0  0.60120  0.23999  0.74347  1.0000 -0.529459821
F   F7        1.0  0.30200  0.07150  0.25767  1.0000 -0.2014530277
F   F8        1.0  0.18886  0.00290  0.19627  1.0000 -0.2014530277
C   C18       1.0  0.40860  0.13560  0.66447  1.0000 -0.1007785331
H   H9        1.0  0.40740  0.15280  0.55407  1.0000 0.1294607626
C   C19       1.0  0.47400  0.16280  0.75097  1.0000 -0.0261871712
F   F9        1.0  0.25480  0.09900  0.04737  1.0000 -0.2014530277
C   C20       1.0  0.41100  0.08500  0.99377  1.0000 -0.1521593202
H   H10       1.0  0.41200  0.06830  0.10487  1.0000 0.1185436631
C   C21       1.0  0.47520  0.13790  0.91707  1.0000 -0.1170121804
H   H11       1.0  0.51900  0.15660  0.97717  1.0000 0.1185436631
C   C22       1.0  0.34500  0.08320  0.74007  1.0000 -0.1521593202
H   H12       1.0  0.30140  0.06520  0.67997  1.0000 0.1141334168
C   C23       1.0  0.34550  0.05700  0.90567  1.0000 0.0741274077
C   C24       1.0  0.25540  0.04390  0.12897  1.0000 0.6576800055
O   O6        1.0  0.53600  0.24190  0.52037  1.0000 -0.6320844162
C   C25       1.0  0.21950  0.67670  0.00020  1.0000 0.5576647725
O   O7        1.0  0.23999  0.63879  0.07680  1.0000 -0.6320844162
F   F10       1.0  0.07150  0.76950  0.59100  1.0000 -0.2014530277
F   F11       1.0  0.00290  0.81404  0.52960  1.0000 -0.2014530277
C   C26       1.0  0.13560  0.72700  0.99780  1.0000 -0.1007785331
H   H13       1.0  0.15280  0.74540  0.88740  1.0000 0.1294607626
C   C27       1.0  0.16280  0.68880  0.08430  1.0000 -0.0261871712
F   F12       1.0  0.09900  0.84420  0.38070  1.0000 -0.2014530277
C   C28       1.0  0.08500  0.67400  0.32710  1.0000 -0.1439994629
H   H14       1.0  0.06830  0.65630  0.43820  1.0000 0.1185436631
C   C29       1.0  0.13790  0.66270  0.25040  1.0000 -0.1093930993
H   H15       1.0  0.15660  0.63760  0.31050  1.0000 0.1185436631
C   C30       1.0  0.08320  0.73820  0.07340  1.0000 -0.1554113124
H   H16       1.0  0.06520  0.76380  0.01330  1.0000 0.1141334168
C   C31       1.0  0.05700  0.71150  0.23900  1.0000 0.0741274077
C   C32       1.0  0.04390  0.78850  0.46230  1.0000 0.6576800055
O   O8        1.0  0.24190  0.70590  0.85370  1.0000 -0.529459821
C   C33       1.0  0.32330  0.54280  0.33353  1.0000 0.4763081428
O   O9        1.0  0.36121  0.60120  0.41013  1.0000 -0.6170853767
F   F13       1.0  0.23050  0.30200  0.92433  1.0000 -0.2014530277
F   F14       1.0  0.18596  0.18886  0.86293  1.0000 -0.2052942906
C   C34       1.0  0.27300  0.40860  0.33113  1.0000 -0.1007785331
H   H17       1.0  0.25460  0.40740  0.22073  1.0000 0.1294607626
C   C35       1.0  0.31120  0.47400  0.41763  1.0000 -0.0119840093
F   F15       1.0  0.15580  0.25480  0.71403  1.0000 -0.2014530277
C   C36       1.0  0.32600  0.41100  0.66043  1.0000 -0.1521593202
H   H18       1.0  0.34370  0.41200  0.77153  1.0000 0.1185436631
C   C37       1.0  0.33730  0.47520  0.58373  1.0000 -0.1170121804
H   H19       1.0  0.36240  0.51900  0.64383  1.0000 0.1185436631
C   C38       1.0  0.26180  0.34500  0.40673  1.0000 -0.1521593202
H   H20       1.0  0.23620  0.30140  0.34663  1.0000 0.1185436631
C   C39       1.0  0.28850  0.34550  0.57233  1.0000 0.0741274077
C   C40       1.0  0.21150  0.25540  0.79563  1.0000 0.6576800055
O   O10       1.0  0.29410  0.53600  0.18703  1.0000 -0.6431550178
C   C41       1.0  0.45720  0.78050  0.66687  1.0000 0.5576647725
O   O11       1.0  0.39880  0.76001  0.74347  1.0000 -0.529459821
F   F16       1.0  0.69800  0.92850  0.25767  1.0000 -0.2014530277
F   F17       1.0  0.81114  0.99710  0.19627  1.0000 -0.2014530277
C   C42       1.0  0.59140  0.86440  0.66447  1.0000 -0.1007785331
H   H21       1.0  0.59260  0.84720  0.55407  1.0000 0.1294607626
C   C43       1.0  0.52600  0.83720  0.75097  1.0000 -0.0261871712
F   F18       1.0  0.74520  0.90100  0.04737  1.0000 -0.2014530277
C   C44       1.0  0.58900  0.91500  0.99377  1.0000 -0.1521593202
H   H22       1.0  0.58800  0.93170  0.10487  1.0000 0.1185436631
C   C45       1.0  0.52480  0.86210  0.91707  1.0000 -0.1170121804
H   H23       1.0  0.48100  0.84340  0.97717  1.0000 0.1185436631
C   C46       1.0  0.65500  0.91680  0.74007  1.0000 -0.1521593202
H   H24       1.0  0.69860  0.93480  0.67997  1.0000 0.1185436631
C   C47       1.0  0.65450  0.94300  0.90567  1.0000 0.0741274077
C   C48       1.0  0.74460  0.95610  0.12897  1.0000 0.6576800055
O   O12       1.0  0.46400  0.75810  0.52037  1.0000 -0.6320844162
C   C49       1.0  0.32330  0.78050  0.33313  1.0000 0.5576647725
O   O13       1.0  0.36121  0.76001  0.25653  1.0000 -0.6320844162
F   F19       1.0  0.23050  0.92850  0.74233  1.0000 -0.2014530277
F   F20       1.0  0.18596  0.99710  0.80373  1.0000 -0.2052942906
C   C50       1.0  0.27300  0.86440  0.33553  1.0000 -0.1007785331
H   H25       1.0  0.25460  0.84720  0.44593  1.0000 0.1294607626
C   C51       1.0  0.31120  0.83720  0.24903  1.0000 -0.0261871712
F   F21       1.0  0.15580  0.90100  0.95263  1.0000 -0.2014530277
C   C52       1.0  0.32600  0.91500  0.00623  1.0000 -0.1439994629
H   H26       1.0  0.34370  0.93170  0.89513  1.0000 0.1185436631
C   C53       1.0  0.33730  0.86210  0.08293  1.0000 -0.1093930993
H   H27       1.0  0.36240  0.84340  0.02283  1.0000 0.1185436631
C   C54       1.0  0.26180  0.91680  0.25993  1.0000 -0.1554113124
H   H28       1.0  0.23620  0.93480  0.32003  1.0000 0.1141334168
C   C55       1.0  0.28850  0.94300  0.09433  1.0000 0.0741274077
C   C56       1.0  0.21150  0.95610  0.87103  1.0000 0.6576800055
O   O14       1.0  0.29410  0.75810  0.47963  1.0000 -0.529459821
C   C57       1.0  0.45720  0.67670  0.99980  1.0000 0.4763081428
O   O15       1.0  0.39880  0.63879  0.92320  1.0000 -0.6170853767
F   F22       1.0  0.69800  0.76950  0.40900  1.0000 -0.2014530277
F   F23       1.0  0.81114  0.81404  0.47040  1.0000 -0.2014530277
C   C58       1.0  0.59140  0.72700  0.00220  1.0000 -0.1007785331
H   H29       1.0  0.59260  0.74540  0.11260  1.0000 0.1294607626
C   C59       1.0  0.52600  0.68880  0.91570  1.0000 -0.0119840093
F   F24       1.0  0.74520  0.84420  0.61930  1.0000 -0.2014530277
C   C60       1.0  0.58900  0.67400  0.67290  1.0000 -0.1521593202
H   H30       1.0  0.58800  0.65630  0.56180  1.0000 0.1185436631
C   C61       1.0  0.52480  0.66270  0.74960  1.0000 -0.1170121804
H   H31       1.0  0.48100  0.63760  0.68950  1.0000 0.1185436631
C   C62       1.0  0.65500  0.73820  0.92660  1.0000 -0.1521593202
H   H32       1.0  0.69860  0.76380  0.98670  1.0000 0.1185436631
C   C63       1.0  0.65450  0.71150  0.76100  1.0000 0.0741274077
C   C64       1.0  0.74460  0.78850  0.53770  1.0000 0.6576800055
O   O16       1.0  0.46400  0.70590  0.14630  1.0000 -0.6431550178
C   C65       1.0  0.21950  0.54280  0.66647  1.0000 0.5576647725
O   O17       1.0  0.23999  0.60120  0.58987  1.0000 -0.529459821
F   F25       1.0  0.07150  0.30200  0.07567  1.0000 -0.2014530277
F   F26       1.0  0.00290  0.18886  0.13707  1.0000 -0.2014530277
C   C66       1.0  0.13560  0.40860  0.66887  1.0000 -0.1007785331
H   H33       1.0  0.15280  0.40740  0.77927  1.0000 0.1294607626
C   C67       1.0  0.16280  0.47400  0.58237  1.0000 -0.0261871712
F   F27       1.0  0.09900  0.25480  0.28597  1.0000 -0.2014530277
C   C68       1.0  0.08500  0.41100  0.33957  1.0000 -0.1521593202
H   H34       1.0  0.06830  0.41200  0.22847  1.0000 0.1185436631
C   C69       1.0  0.13790  0.47520  0.41627  1.0000 -0.1170121804
H   H35       1.0  0.15660  0.51900  0.35617  1.0000 0.1185436631
C   C70       1.0  0.08320  0.34500  0.59327  1.0000 -0.1521593202
H   H36       1.0  0.06520  0.30140  0.65337  1.0000 0.1141334168
C   C71       1.0  0.05700  0.34550  0.42767  1.0000 0.0741274077
C   C72       1.0  0.04390  0.25540  0.20437  1.0000 0.6576800055
O   O18       1.0  0.24190  0.53600  0.81297  1.0000 -0.6320844162
C   C73       1.0  0.67670  0.21950  0.33313  1.0000 0.5576647725
O   O19       1.0  0.63879  0.23999  0.25653  1.0000 -0.6320844162
F   F28       1.0  0.76950  0.07150  0.74233  1.0000 -0.2014530277
F   F29       1.0  0.81404  0.00290  0.80373  1.0000 -0.2014530277
C   C74       1.0  0.72700  0.13560  0.33553  1.0000 -0.1007785331
H   H37       1.0  0.74540  0.15280  0.44593  1.0000 0.1294607626
C   C75       1.0  0.68880  0.16280  0.24903  1.0000 -0.0261871712
F   F30       1.0  0.84420  0.09900  0.95263  1.0000 -0.2014530277
C   C76       1.0  0.67400  0.08500  0.00623  1.0000 -0.1439994629
H   H38       1.0  0.65630  0.06830  0.89513  1.0000 0.1185436631
C   C77       1.0  0.66270  0.13790  0.08293  1.0000 -0.1093930993
H   H39       1.0  0.63760  0.15660  0.02283  1.0000 0.1185436631
C   C78       1.0  0.73820  0.08320  0.25993  1.0000 -0.1521593202
H   H40       1.0  0.76380  0.06520  0.32003  1.0000 0.1141334168
C   C79       1.0  0.71150  0.05700  0.09433  1.0000 0.0741274077
C   C80       1.0  0.78850  0.04390  0.87103  1.0000 0.6576800055
O   O20       1.0  0.70590  0.24190  0.47963  1.0000 -0.529459821
C   C81       1.0  0.54280  0.32330  0.99980  1.0000 0.4763081428
O   O21       1.0  0.60120  0.36121  0.92320  1.0000 -0.6170853767
F   F31       1.0  0.30200  0.23050  0.40900  1.0000 -0.2014530277
F   F32       1.0  0.18886  0.18596  0.47040  1.0000 -0.2052942906
C   C82       1.0  0.40860  0.27300  0.00220  1.0000 -0.1007785331
H   H41       1.0  0.40740  0.25460  0.11260  1.0000 0.1294607626
C   C83       1.0  0.47400  0.31120  0.91570  1.0000 -0.0119840093
F   F33       1.0  0.25480  0.15580  0.61930  1.0000 -0.2014530277
C   C84       1.0  0.41100  0.32600  0.67290  1.0000 -0.1521593202
H   H42       1.0  0.41200  0.34370  0.56180  1.0000 0.1185436631
C   C85       1.0  0.47520  0.33730  0.74960  1.0000 -0.1170121804
H   H43       1.0  0.51900  0.36240  0.68950  1.0000 0.1185436631
C   C86       1.0  0.34500  0.26180  0.92660  1.0000 -0.1521593202
H   H44       1.0  0.30140  0.23620  0.98670  1.0000 0.1185436631
C   C87       1.0  0.34550  0.28850  0.76100  1.0000 0.0741274077
C   C88       1.0  0.25540  0.21150  0.53770  1.0000 0.6576800055
O   O22       1.0  0.53600  0.29410  0.14630  1.0000 -0.6431550178
C   C89       1.0  0.78050  0.45720  0.66647  1.0000 0.5576647725
O   O23       1.0  0.76001  0.39880  0.58987  1.0000 -0.529459821
F   F34       1.0  0.92850  0.69800  0.07567  1.0000 -0.2014530277
F   F35       1.0  0.99710  0.81114  0.13707  1.0000 -0.2014530277
C   C90       1.0  0.86440  0.59140  0.66887  1.0000 -0.1007785331
H   H45       1.0  0.84720  0.59260  0.77927  1.0000 0.1294607626
C   C91       1.0  0.83720  0.52600  0.58237  1.0000 -0.0261871712
F   F36       1.0  0.90100  0.74520  0.28597  1.0000 -0.2014530277
C   C92       1.0  0.91500  0.58900  0.33957  1.0000 -0.1521593202
H   H46       1.0  0.93170  0.58800  0.22847  1.0000 0.1185436631
C   C93       1.0  0.86210  0.52480  0.41627  1.0000 -0.1170121804
H   H47       1.0  0.84340  0.48100  0.35617  1.0000 0.1185436631
C   C94       1.0  0.91680  0.65500  0.59327  1.0000 -0.1521593202
H   H48       1.0  0.93480  0.69860  0.65337  1.0000 0.1141334168
C   C95       1.0  0.94300  0.65450  0.42767  1.0000 0.0741274077
C   C96       1.0  0.95610  0.74460  0.20437  1.0000 0.6576800055
O   O24       1.0  0.75810  0.46400  0.81297  1.0000 -0.6320844162
Zn  Zn1       1.0  0.70060  0.40120  0.00000  1.0000 0.9406839069
Co  Co1       1.0  0.69995  0.39990  0.00000  1.0000 0.8669448104
Zn  Zn2       1.0  0.59880  0.29940  0.33333  1.0000 0.9406839069
Co  Co2       1.0  0.60010  0.30005  0.33333  1.0000 0.8669448104
Co  Co3       1.0  0.70060  0.29940  0.66667  1.0000 0.8211727645
Zn  Zn3       1.0  0.29940  0.59880  0.00000  1.0000 0.9406839069
Co  Co4       1.0  0.30005  0.60010  0.00000  1.0000 0.8669448104
Zn  Zn4       1.0  0.40120  0.70060  0.33333  1.0000 0.9406839069
Co  Co5       1.0  0.39990  0.69995  0.33333  1.0000 0.8669448104
Co  Co6       1.0  0.29940  0.70060  0.66667  1.0000 0.8211727645
C   C97       1.0  0.00000  0.27580  0.33333  1.0000 -0.2913412098
C   C98       1.0  0.72420  0.72420  0.66667  1.0000 -0.2913412098
C   C99       1.0  0.27580  0.00000  0.00000  1.0000 -0.2913412098
C   C100      1.0  0.00000  0.72420  0.33333  1.0000 -0.2913412098
C   C101      1.0  0.27580  0.27580  0.66667  1.0000 -0.2913412098
C   C102      1.0  0.72420  0.00000  0.00000  1.0000 -0.2913412098
  Zn  Zn5       1.0  0.70060  0.29940  0.66667  1.0000
  Zn  Zn6       1.0  0.29940  0.70060  0.66667  1.0000
