# DDEC6 charges by PACMAN v1.1 (https://github.com/mtap-research/PACMAN-charge/)
data_XEGWIS_FSR_pacman
_chemical_formula_sum              "O24 C102 F36 H48 Zn6 Co4"
_cell_length_a       21.2333
_cell_length_b       21.2333
_cell_length_c       7.6981
_cell_angle_alpha    90
_cell_angle_beta     90
_cell_angle_gamma    120

_symmetry_space_group_name_H-M    "P 1"
_symmetry_Int_Tables_number       1

loop_
  _symmetry_equiv_pos_as_xyz
  'x, y, z'

loop_
  _atom_site_type_symbol
  _atom_site_label
  _atom_site_symmetry_multiplicity
  _atom_site_fract_x
  _atom_site_fract_y
  _atom_site_fract_z
  _atom_site_occupancy
 _atom_site_charge
O   O1        1.0  0.24018  0.63891  0.07600  1.0000 -0.6400064601
C   C1        1.0  0.21897  0.67657  0.99830  1.0000 0.5486575591
F   F1        1.0  0.07192  0.76890  0.59000  1.0000 -0.2010079467
F   F2        1.0  0.00307  0.81362  0.52870  1.0000 -0.2010079467
C   C2        1.0  0.13496  0.72638  0.99740  1.0000 -0.0944728403
H   H1        1.0  0.15160  0.74440  0.88650  1.0000 0.1290297197
C   C3        1.0  0.08525  0.67355  0.32530  1.0000 -0.1407875193
H   H2        1.0  0.06850  0.65550  0.43610  1.0000 0.1175903211
C   C4        1.0  0.16262  0.68855  0.08340  1.0000 -0.0262804197
F   F3        1.0  0.09880  0.84379  0.37880  1.0000 -0.2010079467
C   C5        1.0  0.13813  0.66254  0.24990  1.0000 -0.1017019412
H   H3        1.0  0.15720  0.63790  0.31020  1.0000 0.1290297197
C   C6        1.0  0.08271  0.73774  0.07440  1.0000 -0.1560333556
H   H4        1.0  0.06470  0.76360  0.01530  1.0000 0.1146166103
C   C7        1.0  0.04360  0.78779  0.46140  1.0000 0.6584377912
C   C8        1.0  0.05691  0.71087  0.23920  1.0000 0.0746266715
O   O2        1.0  0.24169  0.70617  0.85260  1.0000 -0.5088704152
O   O3        1.0  0.36109  0.60127  0.40933  1.0000 -0.6252488269
C   C9        1.0  0.32343  0.54240  0.33163  1.0000 0.4702592494
F   F4        1.0  0.23110  0.30302  0.92333  1.0000 -0.2010079467
F   F5        1.0  0.18638  0.18945  0.86203  1.0000 -0.2010079467
C   C10       1.0  0.27362  0.40858  0.33073  1.0000 -0.1017019412
H   H5        1.0  0.25560  0.40720  0.21983  1.0000 0.1290297197
C   C11       1.0  0.32645  0.41170  0.65863  1.0000 -0.1508469561
H   H6        1.0  0.34450  0.41300  0.76943  1.0000 0.1175903211
C   C12       1.0  0.31145  0.47407  0.41673  1.0000 -0.0136938899
F   F6        1.0  0.15621  0.25501  0.71213  1.0000 -0.2010079467
C   C13       1.0  0.33746  0.47559  0.58323  1.0000 -0.1125258467
H   H7        1.0  0.36210  0.51930  0.64353  1.0000 0.1290297197
C   C14       1.0  0.26226  0.34497  0.40773  1.0000 -0.1508469561
H   H8        1.0  0.23640  0.30110  0.34863  1.0000 0.1175903211
C   C15       1.0  0.21221  0.25581  0.79473  1.0000 0.6584377912
C   C16       1.0  0.28913  0.34604  0.57253  1.0000 0.0755775573
O   O4        1.0  0.29383  0.53552  0.18593  1.0000 -0.6400064601
O   O5        1.0  0.39873  0.75982  0.74267  1.0000 -0.5275477244
C   C17       1.0  0.45760  0.78103  0.66497  1.0000 0.5486575591
F   F7        1.0  0.69698  0.92808  0.25667  1.0000 -0.2010079467
F   F8        1.0  0.81055  0.99693  0.19537  1.0000 -0.2010079467
C   C18       1.0  0.59142  0.86504  0.66407  1.0000 -0.1017019412
H   H9        1.0  0.59280  0.84840  0.55317  1.0000 0.1290297197
C   C19       1.0  0.58830  0.91475  0.99197  1.0000 -0.1508469561
H   H10       1.0  0.58700  0.93150  0.10277  1.0000 0.1175903211
C   C20       1.0  0.52593  0.83738  0.75007  1.0000 -0.0262804197
F   F9        1.0  0.74499  0.90120  0.04547  1.0000 -0.2010079467
C   C21       1.0  0.52441  0.86187  0.91657  1.0000 -0.1125258467
H   H11       1.0  0.48070  0.84280  0.97687  1.0000 0.1175903211
C   C22       1.0  0.65503  0.91729  0.74107  1.0000 -0.1508469561
H   H12       1.0  0.69890  0.93530  0.68197  1.0000 0.1175903211
C   C23       1.0  0.74419  0.95640  0.12807  1.0000 0.6584377912
C   C24       1.0  0.65396  0.94309  0.90587  1.0000 0.0746266715
O   O6        1.0  0.46448  0.75831  0.51927  1.0000 -0.6252488269
O   O7        1.0  0.75982  0.36109  0.07600  1.0000 -0.6400064601
C   C25       1.0  0.78103  0.32343  0.99830  1.0000 0.5486575591
F   F10       1.0  0.92808  0.23110  0.59000  1.0000 -0.2010079467
F   F11       1.0  0.99693  0.18638  0.52870  1.0000 -0.2010079467
C   C26       1.0  0.86504  0.27362  0.99740  1.0000 -0.0944728403
H   H13       1.0  0.84840  0.25560  0.88650  1.0000 0.1290297197
C   C27       1.0  0.91475  0.32645  0.32530  1.0000 -0.1407875193
H   H14       1.0  0.93150  0.34450  0.43610  1.0000 0.1175903211
C   C28       1.0  0.83738  0.31145  0.08340  1.0000 -0.0262804197
F   F12       1.0  0.90120  0.15621  0.37880  1.0000 -0.2010079467
C   C29       1.0  0.86187  0.33746  0.24990  1.0000 -0.1017019412
H   H15       1.0  0.84280  0.36210  0.31020  1.0000 0.1290297197
C   C30       1.0  0.91729  0.26226  0.07440  1.0000 -0.1560333556
H   H16       1.0  0.93530  0.23640  0.01530  1.0000 0.1146166103
C   C31       1.0  0.95640  0.21221  0.46140  1.0000 0.6584377912
C   C32       1.0  0.94309  0.28913  0.23920  1.0000 0.0746266715
O   O8        1.0  0.75831  0.29383  0.85260  1.0000 -0.5088704152
O   O9        1.0  0.63891  0.39873  0.40933  1.0000 -0.6252488269
C   C33       1.0  0.67657  0.45760  0.33163  1.0000 0.4702592494
F   F13       1.0  0.76890  0.69698  0.92333  1.0000 -0.2010079467
F   F14       1.0  0.81362  0.81055  0.86203  1.0000 -0.2010079467
C   C34       1.0  0.72638  0.59142  0.33073  1.0000 -0.1017019412
H   H17       1.0  0.74440  0.59280  0.21983  1.0000 0.1290297197
C   C35       1.0  0.67355  0.58830  0.65863  1.0000 -0.1508469561
H   H18       1.0  0.65550  0.58700  0.76943  1.0000 0.1175903211
C   C36       1.0  0.68855  0.52593  0.41673  1.0000 -0.0136938899
F   F15       1.0  0.84379  0.74499  0.71213  1.0000 -0.2010079467
C   C37       1.0  0.66254  0.52441  0.58323  1.0000 -0.1125258467
H   H19       1.0  0.63790  0.48070  0.64353  1.0000 0.1290297197
C   C38       1.0  0.73774  0.65503  0.40773  1.0000 -0.1508469561
H   H20       1.0  0.76360  0.69890  0.34863  1.0000 0.1175903211
C   C39       1.0  0.78779  0.74419  0.79473  1.0000 0.6584377912
C   C40       1.0  0.71087  0.65396  0.57253  1.0000 0.0746266715
O   O10       1.0  0.70617  0.46448  0.18593  1.0000 -0.6400064601
O   O11       1.0  0.60127  0.24018  0.74267  1.0000 -0.5275477244
C   C41       1.0  0.54240  0.21897  0.66497  1.0000 0.5486575591
F   F16       1.0  0.30302  0.07192  0.25667  1.0000 -0.2010079467
F   F17       1.0  0.18945  0.00307  0.19537  1.0000 -0.2010079467
C   C42       1.0  0.40858  0.13496  0.66407  1.0000 -0.1017019412
H   H21       1.0  0.40720  0.15160  0.55317  1.0000 0.1290297197
C   C43       1.0  0.41170  0.08525  0.99197  1.0000 -0.1508469561
H   H22       1.0  0.41300  0.06850  0.10277  1.0000 0.1175903211
C   C44       1.0  0.47407  0.16262  0.75007  1.0000 -0.0262804197
F   F18       1.0  0.25501  0.09880  0.04547  1.0000 -0.2010079467
C   C45       1.0  0.47559  0.13813  0.91657  1.0000 -0.1125258467
H   H23       1.0  0.51930  0.15720  0.97687  1.0000 0.1175903211
C   C46       1.0  0.34497  0.08271  0.74107  1.0000 -0.1508469561
H   H24       1.0  0.30110  0.06470  0.68197  1.0000 0.1175903211
C   C47       1.0  0.25581  0.04360  0.12807  1.0000 0.6584377912
C   C48       1.0  0.34604  0.05691  0.90587  1.0000 0.0746266715
O   O12       1.0  0.53552  0.24169  0.51927  1.0000 -0.6252488269
O   O13       1.0  0.63891  0.24018  0.25733  1.0000 -0.6400064601
C   C49       1.0  0.67657  0.21897  0.33503  1.0000 0.5486575591
F   F19       1.0  0.76890  0.07192  0.74333  1.0000 -0.2010079467
F   F20       1.0  0.81362  0.00307  0.80463  1.0000 -0.2010079467
C   C50       1.0  0.72638  0.13496  0.33593  1.0000 -0.0944728403
H   H25       1.0  0.74440  0.15160  0.44683  1.0000 0.1290297197
C   C51       1.0  0.67355  0.08525  0.00803  1.0000 -0.1407875193
H   H26       1.0  0.65550  0.06850  0.89723  1.0000 0.1175903211
C   C52       1.0  0.68855  0.16262  0.24993  1.0000 -0.0262804197
F   F21       1.0  0.84379  0.09880  0.95453  1.0000 -0.2010079467
C   C53       1.0  0.66254  0.13813  0.08343  1.0000 -0.1017019412
H   H27       1.0  0.63790  0.15720  0.02313  1.0000 0.1290297197
C   C54       1.0  0.73774  0.08271  0.25893  1.0000 -0.1560333556
H   H28       1.0  0.76360  0.06470  0.31803  1.0000 0.1146166103
C   C55       1.0  0.78779  0.04360  0.87193  1.0000 0.6584377912
C   C56       1.0  0.71087  0.05691  0.09413  1.0000 0.0746266715
O   O14       1.0  0.70617  0.24169  0.48073  1.0000 -0.5088704152
O   O15       1.0  0.60127  0.36109  0.92400  1.0000 -0.6252488269
C   C57       1.0  0.54240  0.32343  0.00170  1.0000 0.4702592494
F   F22       1.0  0.30302  0.23110  0.41000  1.0000 -0.2010079467
F   F23       1.0  0.18945  0.18638  0.47130  1.0000 -0.2010079467
C   C58       1.0  0.40858  0.27362  0.00260  1.0000 -0.1017019412
H   H29       1.0  0.40720  0.25560  0.11350  1.0000 0.1290297197
C   C59       1.0  0.41170  0.32645  0.67470  1.0000 -0.1508469561
H   H30       1.0  0.41300  0.34450  0.56390  1.0000 0.1175903211
C   C60       1.0  0.47407  0.31145  0.91660  1.0000 -0.0136938899
F   F24       1.0  0.25501  0.15621  0.62120  1.0000 -0.2010079467
C   C61       1.0  0.47559  0.33746  0.75010  1.0000 -0.1125258467
H   H31       1.0  0.51930  0.36210  0.68980  1.0000 0.1290297197
C   C62       1.0  0.34497  0.26226  0.92560  1.0000 -0.1508469561
H   H32       1.0  0.30110  0.23640  0.98470  1.0000 0.1175903211
C   C63       1.0  0.25581  0.21221  0.53860  1.0000 0.6584377912
C   C64       1.0  0.34604  0.28913  0.76080  1.0000 0.0746266715
O   O16       1.0  0.53552  0.29383  0.14740  1.0000 -0.6400064601
O   O17       1.0  0.75982  0.39873  0.59067  1.0000 -0.5275477244
C   C65       1.0  0.78103  0.45760  0.66837  1.0000 0.5486575591
F   F25       1.0  0.92808  0.69698  0.07667  1.0000 -0.2010079467
F   F26       1.0  0.99693  0.81055  0.13797  1.0000 -0.2010079467
C   C66       1.0  0.86504  0.59142  0.66927  1.0000 -0.1017019412
H   H33       1.0  0.84840  0.59280  0.78017  1.0000 0.1290297197
C   C67       1.0  0.91475  0.58830  0.34137  1.0000 -0.1508469561
H   H34       1.0  0.93150  0.58700  0.23057  1.0000 0.1175903211
C   C68       1.0  0.83738  0.52593  0.58327  1.0000 -0.0262804197
F   F27       1.0  0.90120  0.74499  0.28787  1.0000 -0.2010079467
C   C69       1.0  0.86187  0.52441  0.41677  1.0000 -0.1125258467
H   H35       1.0  0.84280  0.48070  0.35647  1.0000 0.1175903211
C   C70       1.0  0.91729  0.65503  0.59227  1.0000 -0.1508469561
H   H36       1.0  0.93530  0.69890  0.65137  1.0000 0.1175903211
C   C71       1.0  0.95640  0.74419  0.20527  1.0000 0.6584377912
C   C72       1.0  0.94309  0.65396  0.42747  1.0000 0.0746266715
O   O18       1.0  0.75831  0.46448  0.81407  1.0000 -0.6252488269
O   O19       1.0  0.36109  0.75982  0.25733  1.0000 -0.6400064601
C   C73       1.0  0.32343  0.78103  0.33503  1.0000 0.5486575591
F   F28       1.0  0.23110  0.92808  0.74333  1.0000 -0.2010079467
F   F29       1.0  0.18638  0.99693  0.80463  1.0000 -0.2010079467
C   C74       1.0  0.27362  0.86504  0.33593  1.0000 -0.0944728403
H   H37       1.0  0.25560  0.84840  0.44683  1.0000 0.1290297197
C   C75       1.0  0.32645  0.91475  0.00803  1.0000 -0.1407875193
H   H38       1.0  0.34450  0.93150  0.89723  1.0000 0.1175903211
C   C76       1.0  0.31145  0.83738  0.24993  1.0000 -0.0262804197
F   F30       1.0  0.15621  0.90120  0.95453  1.0000 -0.2010079467
C   C77       1.0  0.33746  0.86187  0.08343  1.0000 -0.1017019412
H   H39       1.0  0.36210  0.84280  0.02313  1.0000 0.1290297197
C   C78       1.0  0.26226  0.91729  0.25893  1.0000 -0.1560333556
H   H40       1.0  0.23640  0.93530  0.31803  1.0000 0.1146166103
C   C79       1.0  0.21221  0.95640  0.87193  1.0000 0.6584377912
C   C80       1.0  0.28913  0.94309  0.09413  1.0000 0.0746266715
O   O20       1.0  0.29383  0.75831  0.48073  1.0000 -0.5088704152
O   O21       1.0  0.39873  0.63891  0.92400  1.0000 -0.6252488269
C   C81       1.0  0.45760  0.67657  0.00170  1.0000 0.4702592494
F   F31       1.0  0.69698  0.76890  0.41000  1.0000 -0.2010079467
F   F32       1.0  0.81055  0.81362  0.47130  1.0000 -0.2010079467
C   C82       1.0  0.59142  0.72638  0.00260  1.0000 -0.1017019412
H   H41       1.0  0.59280  0.74440  0.11350  1.0000 0.1290297197
C   C83       1.0  0.58830  0.67355  0.67470  1.0000 -0.1508469561
H   H42       1.0  0.58700  0.65550  0.56390  1.0000 0.1175903211
C   C84       1.0  0.52593  0.68855  0.91660  1.0000 -0.0136938899
F   F33       1.0  0.74499  0.84379  0.62120  1.0000 -0.2010079467
C   C85       1.0  0.52441  0.66254  0.75010  1.0000 -0.1125258467
H   H43       1.0  0.48070  0.63790  0.68980  1.0000 0.1290297197
C   C86       1.0  0.65503  0.73774  0.92560  1.0000 -0.1508469561
H   H44       1.0  0.69890  0.76360  0.98470  1.0000 0.1175903211
C   C87       1.0  0.74419  0.78779  0.53860  1.0000 0.6584377912
C   C88       1.0  0.65396  0.71087  0.76080  1.0000 0.0746266715
O   O22       1.0  0.46448  0.70617  0.14740  1.0000 -0.6400064601
O   O23       1.0  0.24018  0.60127  0.59067  1.0000 -0.5275477244
C   C89       1.0  0.21897  0.54240  0.66837  1.0000 0.5486575591
F   F34       1.0  0.07192  0.30302  0.07667  1.0000 -0.2010079467
F   F35       1.0  0.00307  0.18945  0.13797  1.0000 -0.2010079467
C   C90       1.0  0.13496  0.40858  0.66927  1.0000 -0.1017019412
H   H45       1.0  0.15160  0.40720  0.78017  1.0000 0.1290297197
C   C91       1.0  0.08525  0.41170  0.34137  1.0000 -0.1508469561
H   H46       1.0  0.06850  0.41300  0.23057  1.0000 0.1175903211
C   C92       1.0  0.16262  0.47407  0.58327  1.0000 -0.0262804197
F   F36       1.0  0.09880  0.25501  0.28787  1.0000 -0.2010079467
C   C93       1.0  0.13813  0.47559  0.41677  1.0000 -0.1125258467
H   H47       1.0  0.15720  0.51930  0.35647  1.0000 0.1175903211
C   C94       1.0  0.08271  0.34497  0.59227  1.0000 -0.1508469561
H   H48       1.0  0.06470  0.30110  0.65137  1.0000 0.1175903211
C   C95       1.0  0.04360  0.25581  0.20527  1.0000 0.6584377912
C   C96       1.0  0.05691  0.34604  0.42747  1.0000 0.0746266715
O   O24       1.0  0.24169  0.53552  0.81407  1.0000 -0.6252488269
Zn  Zn1       1.0  0.29928  0.59855  0.00000  1.0000 0.9487448411
Co  Co1       1.0  0.29990  0.59980  0.00000  1.0000 0.8772315906
Zn  Zn2       1.0  0.40145  0.70073  0.33333  1.0000 0.9487448411
Co  Co2       1.0  0.40020  0.70010  0.33333  1.0000 0.8772315906
Zn  Zn3       1.0  0.29928  0.70073  0.66667  1.0000 0.687733777
Zn  Zn4       1.0  0.70072  0.40145  0.00000  1.0000 0.9487448411
Co  Co3       1.0  0.70010  0.40020  0.00000  1.0000 0.8772315906
Zn  Zn5       1.0  0.59855  0.29928  0.33333  1.0000 0.9487448411
Co  Co4       1.0  0.59980  0.29990  0.33333  1.0000 0.8772315906
Zn  Zn6       1.0  0.70072  0.29928  0.66667  1.0000 0.687733777
C   C97       1.0  0.00000  0.72370  0.33333  1.0000 -0.2900412752
C   C98       1.0  0.27630  0.27630  0.66667  1.0000 -0.2900412752
C   C99       1.0  0.72370  0.00000  0.00000  1.0000 -0.2900412752
C   C100      1.0  0.00000  0.27630  0.33333  1.0000 -0.2900412752
C   C101      1.0  0.72370  0.72370  0.66667  1.0000 -0.2900412752
C   C102      1.0  0.27630  0.00000  0.00000  1.0000 -0.2900412752
  Co  Co5       1.0  0.29928  0.70073  0.66667  1.0000
  Co  Co6       1.0  0.70072  0.29928  0.66667  1.0000
