# DDEC6 charges by PACMAN v1.1 (https://github.com/mtap-research/PACMAN-charge/)
data_XEGXIT_FSR_pacman
_chemical_formula_sum              "C102 H48 O24 F36 Zn6"
_cell_length_a       21.259
_cell_length_b       21.259
_cell_length_c       7.6841
_cell_angle_alpha    90
_cell_angle_beta     90
_cell_angle_gamma    120

_symmetry_space_group_name_H-M    "P 1"
_symmetry_Int_Tables_number       1

loop_
  _symmetry_equiv_pos_as_xyz
  'x, y, z'

loop_
  _atom_site_type_symbol
  _atom_site_label
  _atom_site_symmetry_multiplicity
  _atom_site_fract_x
  _atom_site_fract_y
  _atom_site_fract_z
  _atom_site_occupancy
 _atom_site_charge
C   C1        1.0  0.78010  0.32250  0.99830  1.0000 0.5865566892
C   C2        1.0  0.86370  0.27220  0.99870  1.0000 -0.0869312051
H   H1        1.0  0.84550  0.25270  0.88950  1.0000 0.1295228687
C   C3        1.0  0.83730  0.31110  0.08420  1.0000 -0.0210311965
C   C4        1.0  0.86190  0.33680  0.24860  1.0000 -0.0869312051
H   H2        1.0  0.84290  0.36160  0.30830  1.0000 0.1295228687
C   C5        1.0  0.91410  0.32660  0.32620  1.0000 -0.1341086316
H   H3        1.0  0.93070  0.34490  0.43710  1.0000 0.1184550511
C   C6        1.0  0.91660  0.26220  0.07360  1.0000 -0.1483977537
H   H4        1.0  0.93520  0.23740  0.01250  1.0000 0.1184550511
C   C7        1.0  0.95610  0.21290  0.46600  1.0000 0.6625498297
C   C8        1.0  0.94250  0.28830  0.23770  1.0000 0.076142439
O   O1        1.0  0.75970  0.36120  0.07890  1.0000 -0.5606434035
O   O2        1.0  0.75820  0.29360  0.85300  1.0000 -0.5389375029
F   F1        1.0  0.92790  0.23100  0.59250  1.0000 -0.1882402922
F   F2        1.0  0.99730  0.18710  0.52920  1.0000 -0.1988662954
F   F3        1.0  0.90030  0.15720  0.38510  1.0000 -0.1882402922
C   C9        1.0  0.67750  0.45760  0.33163  1.0000 0.5865566892
C   C10       1.0  0.72780  0.59150  0.33203  1.0000 -0.0869312051
H   H5        1.0  0.74730  0.59280  0.22283  1.0000 0.1295228687
C   C11       1.0  0.68890  0.52620  0.41753  1.0000 -0.0210311965
C   C12       1.0  0.66320  0.52510  0.58193  1.0000 -0.0869312051
H   H6        1.0  0.63840  0.48130  0.64163  1.0000 0.1295228687
C   C13       1.0  0.67340  0.58750  0.65953  1.0000 -0.1341086316
H   H7        1.0  0.65510  0.58580  0.77043  1.0000 0.1184550511
C   C14       1.0  0.73780  0.65440  0.40693  1.0000 -0.1483977537
H   H8        1.0  0.76260  0.69780  0.34583  1.0000 0.1184550511
C   C15       1.0  0.78710  0.74320  0.79933  1.0000 0.6625498297
C   C16       1.0  0.71170  0.65420  0.57103  1.0000 0.076142439
O   O3        1.0  0.63880  0.39850  0.41223  1.0000 -0.5606434035
O   O4        1.0  0.70640  0.46460  0.18633  1.0000 -0.5389375029
F   F4        1.0  0.76900  0.69690  0.92583  1.0000 -0.1882402922
F   F5        1.0  0.81290  0.81020  0.86253  1.0000 -0.1988662954
F   F6        1.0  0.84280  0.74310  0.71843  1.0000 -0.1882402922
C   C17       1.0  0.54240  0.21990  0.66497  1.0000 0.5865566892
C   C18       1.0  0.40850  0.13630  0.66537  1.0000 -0.0869312051
H   H9        1.0  0.40720  0.15450  0.55617  1.0000 0.1295228687
C   C19       1.0  0.47380  0.16270  0.75087  1.0000 -0.0210311965
C   C20       1.0  0.47490  0.13810  0.91527  1.0000 -0.0869312051
H   H10       1.0  0.51870  0.15710  0.97497  1.0000 0.1295228687
C   C21       1.0  0.41250  0.08590  0.99287  1.0000 -0.1341086316
H   H11       1.0  0.41420  0.06930  0.10377  1.0000 0.1184550511
C   C22       1.0  0.34560  0.08340  0.74027  1.0000 -0.1483977537
H   H12       1.0  0.30220  0.06480  0.67917  1.0000 0.1184550511
C   C23       1.0  0.25680  0.04390  0.13267  1.0000 0.6625498297
C   C24       1.0  0.34580  0.05750  0.90437  1.0000 0.076142439
O   O5        1.0  0.60150  0.24030  0.74557  1.0000 -0.5606434035
O   O6        1.0  0.53540  0.24180  0.51967  1.0000 -0.5389375029
F   F7        1.0  0.30310  0.07210  0.25917  1.0000 -0.1882402922
F   F8        1.0  0.18980  0.00270  0.19587  1.0000 -0.1988662954
F   F9        1.0  0.25690  0.09970  0.05177  1.0000 -0.1882402922
C   C25       1.0  0.21990  0.67750  0.99830  1.0000 0.5865566892
C   C26       1.0  0.13630  0.72780  0.99870  1.0000 -0.0869312051
H   H13       1.0  0.15450  0.74730  0.88950  1.0000 0.1295228687
C   C27       1.0  0.16270  0.68890  0.08420  1.0000 -0.0210311965
C   C28       1.0  0.13810  0.66320  0.24860  1.0000 -0.0869312051
H   H14       1.0  0.15710  0.63840  0.30830  1.0000 0.1295228687
C   C29       1.0  0.08590  0.67340  0.32620  1.0000 -0.1341086316
H   H15       1.0  0.06930  0.65510  0.43710  1.0000 0.1184550511
C   C30       1.0  0.08340  0.73780  0.07360  1.0000 -0.1483977537
H   H16       1.0  0.06480  0.76260  0.01250  1.0000 0.1184550511
C   C31       1.0  0.04390  0.78710  0.46600  1.0000 0.6625498297
C   C32       1.0  0.05750  0.71170  0.23770  1.0000 0.076142439
O   O7        1.0  0.24030  0.63880  0.07890  1.0000 -0.5606434035
O   O8        1.0  0.24180  0.70640  0.85300  1.0000 -0.5389375029
F   F10       1.0  0.07210  0.76900  0.59250  1.0000 -0.1882402922
F   F11       1.0  0.00270  0.81290  0.52920  1.0000 -0.1988662954
F   F12       1.0  0.09970  0.84280  0.38510  1.0000 -0.1882402922
C   C33       1.0  0.32250  0.54240  0.33163  1.0000 0.5865566892
C   C34       1.0  0.27220  0.40850  0.33203  1.0000 -0.0869312051
H   H17       1.0  0.25270  0.40720  0.22283  1.0000 0.1295228687
C   C35       1.0  0.31110  0.47380  0.41753  1.0000 -0.0210311965
C   C36       1.0  0.33680  0.47490  0.58193  1.0000 -0.0869312051
H   H18       1.0  0.36160  0.51870  0.64163  1.0000 0.1295228687
C   C37       1.0  0.32660  0.41250  0.65953  1.0000 -0.1341086316
H   H19       1.0  0.34490  0.41420  0.77043  1.0000 0.1184550511
C   C38       1.0  0.26220  0.34560  0.40693  1.0000 -0.1483977537
H   H20       1.0  0.23740  0.30220  0.34583  1.0000 0.1184550511
C   C39       1.0  0.21290  0.25680  0.79933  1.0000 0.6625498297
C   C40       1.0  0.28830  0.34580  0.57103  1.0000 0.076142439
O   O9        1.0  0.36120  0.60150  0.41223  1.0000 -0.5606434035
O   O10       1.0  0.29360  0.53540  0.18633  1.0000 -0.5389375029
F   F13       1.0  0.23100  0.30310  0.92583  1.0000 -0.1882402922
F   F14       1.0  0.18710  0.18980  0.86253  1.0000 -0.1988662954
F   F15       1.0  0.15720  0.25690  0.71843  1.0000 -0.1882402922
C   C41       1.0  0.45760  0.78010  0.66497  1.0000 0.5865566892
C   C42       1.0  0.59150  0.86370  0.66537  1.0000 -0.0869312051
H   H21       1.0  0.59280  0.84550  0.55617  1.0000 0.1295228687
C   C43       1.0  0.52620  0.83730  0.75087  1.0000 -0.0210311965
C   C44       1.0  0.52510  0.86190  0.91527  1.0000 -0.0869312051
H   H22       1.0  0.48130  0.84290  0.97497  1.0000 0.1295228687
C   C45       1.0  0.58750  0.91410  0.99287  1.0000 -0.1341086316
H   H23       1.0  0.58580  0.93070  0.10377  1.0000 0.1184550511
C   C46       1.0  0.65440  0.91660  0.74027  1.0000 -0.1483977537
H   H24       1.0  0.69780  0.93520  0.67917  1.0000 0.1184550511
C   C47       1.0  0.74320  0.95610  0.13267  1.0000 0.6625498297
C   C48       1.0  0.65420  0.94250  0.90437  1.0000 0.076142439
O   O11       1.0  0.39850  0.75970  0.74557  1.0000 -0.5606434035
O   O12       1.0  0.46460  0.75820  0.51967  1.0000 -0.5389375029
F   F16       1.0  0.69690  0.92790  0.25917  1.0000 -0.1882402922
F   F17       1.0  0.81020  0.99730  0.19587  1.0000 -0.1988662954
F   F18       1.0  0.74310  0.90030  0.05177  1.0000 -0.1882402922
C   C49       1.0  0.32250  0.78010  0.33503  1.0000 0.5865566892
C   C50       1.0  0.27220  0.86370  0.33463  1.0000 -0.0869312051
H   H25       1.0  0.25270  0.84550  0.44383  1.0000 0.1295228687
C   C51       1.0  0.31110  0.83730  0.24913  1.0000 -0.0210311965
C   C52       1.0  0.33680  0.86190  0.08473  1.0000 -0.0869312051
H   H26       1.0  0.36160  0.84290  0.02503  1.0000 0.1295228687
C   C53       1.0  0.32660  0.91410  0.00713  1.0000 -0.1341086316
H   H27       1.0  0.34490  0.93070  0.89623  1.0000 0.1184550511
C   C54       1.0  0.26220  0.91660  0.25973  1.0000 -0.1483977537
H   H28       1.0  0.23740  0.93520  0.32083  1.0000 0.1184550511
C   C55       1.0  0.21290  0.95610  0.86733  1.0000 0.6625498297
C   C56       1.0  0.28830  0.94250  0.09563  1.0000 0.076142439
O   O13       1.0  0.36120  0.75970  0.25443  1.0000 -0.5606434035
O   O14       1.0  0.29360  0.75820  0.48033  1.0000 -0.5389375029
F   F19       1.0  0.23100  0.92790  0.74083  1.0000 -0.1882402922
F   F20       1.0  0.18710  0.99730  0.80413  1.0000 -0.1988662954
F   F21       1.0  0.15720  0.90030  0.94823  1.0000 -0.1882402922
C   C57       1.0  0.45760  0.67750  0.00170  1.0000 0.5865566892
C   C58       1.0  0.59150  0.72780  0.00130  1.0000 -0.0869312051
H   H29       1.0  0.59280  0.74730  0.11050  1.0000 0.1295228687
C   C59       1.0  0.52620  0.68890  0.91580  1.0000 -0.0210311965
C   C60       1.0  0.52510  0.66320  0.75140  1.0000 -0.0869312051
H   H30       1.0  0.48130  0.63840  0.69170  1.0000 0.1295228687
C   C61       1.0  0.58750  0.67340  0.67380  1.0000 -0.1341086316
H   H31       1.0  0.58580  0.65510  0.56290  1.0000 0.1184550511
C   C62       1.0  0.65440  0.73780  0.92640  1.0000 -0.1483977537
H   H32       1.0  0.69780  0.76260  0.98750  1.0000 0.1184550511
C   C63       1.0  0.74320  0.78710  0.53400  1.0000 0.6625498297
C   C64       1.0  0.65420  0.71170  0.76230  1.0000 0.076142439
O   O15       1.0  0.39850  0.63880  0.92110  1.0000 -0.5606434035
O   O16       1.0  0.46460  0.70640  0.14700  1.0000 -0.5389375029
F   F22       1.0  0.69690  0.76900  0.40750  1.0000 -0.1882402922
F   F23       1.0  0.81020  0.81290  0.47080  1.0000 -0.1988662954
F   F24       1.0  0.74310  0.84280  0.61490  1.0000 -0.1882402922
C   C65       1.0  0.21990  0.54240  0.66837  1.0000 0.5865566892
C   C66       1.0  0.13630  0.40850  0.66797  1.0000 -0.0869312051
H   H33       1.0  0.15450  0.40720  0.77717  1.0000 0.1295228687
C   C67       1.0  0.16270  0.47380  0.58247  1.0000 -0.0210311965
C   C68       1.0  0.13810  0.47490  0.41807  1.0000 -0.0869312051
H   H34       1.0  0.15710  0.51870  0.35837  1.0000 0.1295228687
C   C69       1.0  0.08590  0.41250  0.34047  1.0000 -0.1341086316
H   H35       1.0  0.06930  0.41420  0.22957  1.0000 0.1184550511
C   C70       1.0  0.08340  0.34560  0.59307  1.0000 -0.1483977537
H   H36       1.0  0.06480  0.30220  0.65417  1.0000 0.1184550511
C   C71       1.0  0.04390  0.25680  0.20067  1.0000 0.6625498297
C   C72       1.0  0.05750  0.34580  0.42897  1.0000 0.076142439
O   O17       1.0  0.24030  0.60150  0.58777  1.0000 -0.5606434035
O   O18       1.0  0.24180  0.53540  0.81367  1.0000 -0.5389375029
F   F25       1.0  0.07210  0.30310  0.07417  1.0000 -0.1882402922
F   F26       1.0  0.00270  0.18980  0.13747  1.0000 -0.1988662954
F   F27       1.0  0.09970  0.25690  0.28157  1.0000 -0.1882402922
C   C73       1.0  0.67750  0.21990  0.33503  1.0000 0.5865566892
C   C74       1.0  0.72780  0.13630  0.33463  1.0000 -0.0869312051
H   H37       1.0  0.74730  0.15450  0.44383  1.0000 0.1295228687
C   C75       1.0  0.68890  0.16270  0.24913  1.0000 -0.0210311965
C   C76       1.0  0.66320  0.13810  0.08473  1.0000 -0.0869312051
H   H38       1.0  0.63840  0.15710  0.02503  1.0000 0.1295228687
C   C77       1.0  0.67340  0.08590  0.00713  1.0000 -0.1341086316
H   H39       1.0  0.65510  0.06930  0.89623  1.0000 0.1184550511
C   C78       1.0  0.73780  0.08340  0.25973  1.0000 -0.1483977537
H   H40       1.0  0.76260  0.06480  0.32083  1.0000 0.1184550511
C   C79       1.0  0.78710  0.04390  0.86733  1.0000 0.6625498297
C   C80       1.0  0.71170  0.05750  0.09563  1.0000 0.076142439
O   O19       1.0  0.63880  0.24030  0.25443  1.0000 -0.5606434035
O   O20       1.0  0.70640  0.24180  0.48033  1.0000 -0.5389375029
F   F28       1.0  0.76900  0.07210  0.74083  1.0000 -0.1882402922
F   F29       1.0  0.81290  0.00270  0.80413  1.0000 -0.1988662954
F   F30       1.0  0.84280  0.09970  0.94823  1.0000 -0.1882402922
C   C81       1.0  0.54240  0.32250  0.00170  1.0000 0.5865566892
C   C82       1.0  0.40850  0.27220  0.00130  1.0000 -0.0869312051
H   H41       1.0  0.40720  0.25270  0.11050  1.0000 0.1295228687
C   C83       1.0  0.47380  0.31110  0.91580  1.0000 -0.0210311965
C   C84       1.0  0.47490  0.33680  0.75140  1.0000 -0.0869312051
H   H42       1.0  0.51870  0.36160  0.69170  1.0000 0.1295228687
C   C85       1.0  0.41250  0.32660  0.67380  1.0000 -0.1341086316
H   H43       1.0  0.41420  0.34490  0.56290  1.0000 0.1184550511
C   C86       1.0  0.34560  0.26220  0.92640  1.0000 -0.1483977537
H   H44       1.0  0.30220  0.23740  0.98750  1.0000 0.1184550511
C   C87       1.0  0.25680  0.21290  0.53400  1.0000 0.6625498297
C   C88       1.0  0.34580  0.28830  0.76230  1.0000 0.076142439
O   O21       1.0  0.60150  0.36120  0.92110  1.0000 -0.5606434035
O   O22       1.0  0.53540  0.29360  0.14700  1.0000 -0.5389375029
F   F31       1.0  0.30310  0.23100  0.40750  1.0000 -0.1882402922
F   F32       1.0  0.18980  0.18710  0.47080  1.0000 -0.1988662954
F   F33       1.0  0.25690  0.15720  0.61490  1.0000 -0.1882402922
C   C89       1.0  0.78010  0.45760  0.66837  1.0000 0.5865566892
C   C90       1.0  0.86370  0.59150  0.66797  1.0000 -0.0869312051
H   H45       1.0  0.84550  0.59280  0.77717  1.0000 0.1295228687
C   C91       1.0  0.83730  0.52620  0.58247  1.0000 -0.0210311965
C   C92       1.0  0.86190  0.52510  0.41807  1.0000 -0.0869312051
H   H46       1.0  0.84290  0.48130  0.35837  1.0000 0.1295228687
C   C93       1.0  0.91410  0.58750  0.34047  1.0000 -0.1341086316
H   H47       1.0  0.93070  0.58580  0.22957  1.0000 0.1184550511
C   C94       1.0  0.91660  0.65440  0.59307  1.0000 -0.1483977537
H   H48       1.0  0.93520  0.69780  0.65417  1.0000 0.1184550511
C   C95       1.0  0.95610  0.74320  0.20067  1.0000 0.6625498297
C   C96       1.0  0.94250  0.65420  0.42897  1.0000 0.076142439
O   O23       1.0  0.75970  0.39850  0.58777  1.0000 -0.5606434035
O   O24       1.0  0.75820  0.46460  0.81367  1.0000 -0.5389375029
F   F34       1.0  0.92790  0.69690  0.07417  1.0000 -0.1882402922
F   F35       1.0  0.99730  0.81020  0.13747  1.0000 -0.1988662954
F   F36       1.0  0.90030  0.74310  0.28157  1.0000 -0.1882402922
Zn  Zn1       1.0  0.70055  0.40110  0.00000  1.0000 0.9424044353
Zn  Zn2       1.0  0.59890  0.29945  0.33333  1.0000 0.9424044353
Zn  Zn3       1.0  0.70055  0.29945  0.66667  1.0000 0.9424044353
Zn  Zn4       1.0  0.29945  0.59890  0.00000  1.0000 0.9424044353
Zn  Zn5       1.0  0.40110  0.70055  0.33333  1.0000 0.9424044353
Zn  Zn6       1.0  0.29945  0.70055  0.66667  1.0000 0.9424044353
C   C97       1.0  0.00000  0.27640  0.33333  1.0000 -0.2801584738
C   C98       1.0  0.72360  0.72360  0.66667  1.0000 -0.2801584738
C   C99       1.0  0.27640  0.00000  0.00000  1.0000 -0.2801584738
C   C100      1.0  0.00000  0.72360  0.33333  1.0000 -0.2801584738
C   C101      1.0  0.27640  0.27640  0.66667  1.0000 -0.2801584738
C   C102      1.0  0.72360  0.00000  0.00000  1.0000 -0.2801584738
  Co  Co1       1.0  0.70055  0.40110  0.00000  1.0000
  Co  Co2       1.0  0.59890  0.29945  0.33333  1.0000
  Co  Co3       1.0  0.70055  0.29945  0.66667  1.0000
  Co  Co4       1.0  0.29945  0.59890  0.00000  1.0000
  Co  Co5       1.0  0.40110  0.70055  0.33333  1.0000
  Co  Co6       1.0  0.29945  0.70055  0.66667  1.0000
