# DDEC6 charges by PACMAN v1.1 (https://github.com/mtap-research/PACMAN-charge/)
data_XEJXAN_ASR_pacman
_symmetry_space_group_name_H-M   'P 1'
_cell_length_a   6.73100000
_cell_length_b   7.57500000
_cell_length_c   22.18600000
_cell_angle_alpha   90.00000000
_cell_angle_beta   90.00000000
_cell_angle_gamma   90.00000000
_symmetry_Int_Tables_number   1
_chemical_formula_structural   NiH12C13NO5
_chemical_formula_sum   'Ni4 H48 C52 N4 O20'
_cell_volume   1131.20479245
_cell_formula_units_Z   4
loop_
 _symmetry_equiv_pos_site_id
 _symmetry_equiv_pos_as_xyz
  1  'x, y, z'
loop_
 _atom_site_type_symbol
 _atom_site_label
 _atom_site_symmetry_multiplicity
 _atom_site_fract_x
 _atom_site_fract_y
 _atom_site_fract_z
 _atom_site_occupancy
 _atom_site_charge
Ni  Ni1  1  0.54233000  0.24597000  0.71106000  1.0 0.8484792846
Ni  Ni2  1  0.45767000  0.24597000  0.28894000  1.0 0.8484792846
Ni  Ni3  1  0.95767000  0.75403000  0.21106000  1.0 0.8484792846
Ni  Ni4  1  0.04233000  0.75403000  0.78894000  1.0 0.8484792846
H  H1  1  0.63590000  0.37090000  0.88450000  1.0 0.1216543081
H  H2  1  0.36410000  0.37090000  0.11550000  1.0 0.1216543081
H  H3  1  0.86410000  0.62910000  0.38450000  1.0 0.1216543081
H  H4  1  0.13590000  0.62910000  0.61550000  1.0 0.1216543081
H  H5  1  0.82910000  0.25130000  0.87720000  1.0 0.133698954
H  H6  1  0.17090000  0.25130000  0.12280000  1.0 0.133698954
H  H7  1  0.67090000  0.74870000  0.37720000  1.0 0.133698954
H  H8  1  0.32910000  0.74870000  0.62280000  1.0 0.133698954
H  H9  1  0.53060000  0.08690000  0.87110000  1.0 0.0803762345
H  H10  1  0.46940000  0.08690000  0.12890000  1.0 0.0803762345
H  H11  1  0.96940000  0.91310000  0.37110000  1.0 0.0803762345
H  H12  1  0.03060000  0.91310000  0.62890000  1.0 0.0803762345
H  H13  1  0.29350000  0.24740000  0.81260000  1.0 0.4035920638
H  H14  1  0.70650000  0.24740000  0.18740000  1.0 0.4035920638
H  H15  1  0.20650000  0.75260000  0.31260000  1.0 0.4035920638
H  H16  1  0.79350000  0.75260000  0.68740000  1.0 0.4035920638
H  H17  1  0.96940000  0.30390000  0.67140000  1.0 0.0972298967
H  H18  1  0.03060000  0.30390000  0.32860000  1.0 0.0972298967
H  H19  1  0.53060000  0.69610000  0.17140000  1.0 0.0972298967
H  H20  1  0.46940000  0.69610000  0.82860000  1.0 0.0972298967
H  H21  1  0.16360000  0.29290000  0.58470000  1.0 0.1062661918
H  H22  1  0.83640000  0.29290000  0.41530000  1.0 0.1062661918
H  H23  1  0.33640000  0.70710000  0.08470000  1.0 0.1062661918
H  H24  1  0.66360000  0.70710000  0.91530000  1.0 0.1062661918
H  H25  1  0.67630000  0.13860000  0.49010000  1.0 0.0731010325
H  H26  1  0.32370000  0.13860000  0.50990000  1.0 0.0731010325
H  H27  1  0.82370000  0.86140000  0.99010000  1.0 0.0731010325
H  H28  1  0.17630000  0.86140000  0.00990000  1.0 0.0731010325
H  H29  1  0.49460000  0.14390000  0.57930000  1.0 0.0731010325
H  H30  1  0.50540000  0.14390000  0.42070000  1.0 0.0731010325
H  H31  1  0.00540000  0.85610000  0.07930000  1.0 0.0731010325
H  H32  1  0.99460000  0.85610000  0.92070000  1.0 0.0731010325
H  H33  1  0.93090000  0.38910000  0.66110000  1.0 0.0893856573
H  H34  1  0.06910000  0.38910000  0.33890000  1.0 0.0893856573
H  H35  1  0.56910000  0.61090000  0.16110000  1.0 0.0893856573
H  H36  1  0.43090000  0.61090000  0.83890000  1.0 0.0893856573
H  H37  1  0.13310000  0.36340000  0.57690000  1.0 0.1062661918
H  H38  1  0.86690000  0.36340000  0.42310000  1.0 0.1062661918
H  H39  1  0.36690000  0.63660000  0.07690000  1.0 0.1062661918
H  H40  1  0.63310000  0.63660000  0.92310000  1.0 0.1062661918
H  H41  1  0.73230000  0.03010000  0.50370000  1.0 0.0893856573
H  H42  1  0.26770000  0.03010000  0.49630000  1.0 0.0893856573
H  H43  1  0.76770000  0.96990000  0.00370000  1.0 0.0893856573
H  H44  1  0.23230000  0.96990000  0.99630000  1.0 0.0893856573
H  H45  1  0.54390000  0.04260000  0.59170000  1.0 0.0731010325
H  H46  1  0.45610000  0.04260000  0.40830000  1.0 0.0731010325
H  H47  1  0.95610000  0.95740000  0.09170000  1.0 0.0731010325
H  H48  1  0.04390000  0.95740000  0.90830000  1.0 0.0731010325
C  C1  1  0.79170000  0.42570000  0.80670000  1.0 0.6058589059
C  C2  1  0.20830000  0.42570000  0.19330000  1.0 0.6058589059
C  C3  1  0.70830000  0.57430000  0.30670000  1.0 0.6058589059
C  C4  1  0.29170000  0.57430000  0.69330000  1.0 0.6058589059
C  C5  1  0.71350000  0.30040000  0.85530000  1.0 -0.4245694143
C  C6  1  0.28650000  0.30040000  0.14470000  1.0 -0.4245694143
C  C7  1  0.78650000  0.69960000  0.35530000  1.0 -0.4260146481
C  C8  1  0.21350000  0.69960000  0.64470000  1.0 -0.4260146481
C  C9  1  0.58600000  0.14850000  0.83490000  1.0 0.0893856573
C  C10  1  0.41400000  0.14850000  0.16510000  1.0 0.0893856573
C  C11  1  0.91400000  0.85150000  0.33490000  1.0 0.0893856573
C  C12  1  0.08600000  0.85150000  0.66510000  1.0 0.0893856573
C  C13  1  0.71080000  0.01620000  0.79780000  1.0 0.5378272074
C  C14  1  0.28920000  0.01620000  0.20220000  1.0 0.5378272074
C  C15  1  0.78920000  0.98380000  0.29780000  1.0 0.5378272074
C  C16  1  0.21080000  0.98380000  0.70220000  1.0 0.5378272074
C  C17  1  0.91010000  0.26920000  0.63430000  1.0 0.0363316944
C  C18  1  0.08990000  0.26920000  0.36570000  1.0 0.0347052301
C  C19  1  0.58990000  0.73080000  0.13430000  1.0 0.0363316944
C  C20  1  0.41010000  0.73080000  0.86570000  1.0 0.0363316944
C  C21  1  0.02690000  0.26240000  0.58280000  1.0 -0.1473916856
C  C22  1  0.97310000  0.26240000  0.41720000  1.0 -0.1473916856
C  C23  1  0.47310000  0.73760000  0.08280000  1.0 -0.1473916856
C  C24  1  0.52690000  0.73760000  0.91720000  1.0 -0.1473916856
C  C25  1  0.94190000  0.21030000  0.52800000  1.0 0.0363316944
C  C26  1  0.05810000  0.21030000  0.47200000  1.0 0.0363316944
C  C27  1  0.55810000  0.78970000  0.02800000  1.0 0.0363316944
C  C28  1  0.44190000  0.78970000  0.97200000  1.0 0.0363316944
C  C29  1  0.73930000  0.17000000  0.52690000  1.0 -0.0692983468
C  C30  1  0.26070000  0.17000000  0.47310000  1.0 -0.0692983468
C  C31  1  0.76070000  0.83000000  0.02690000  1.0 -0.0692983468
C  C32  1  0.23930000  0.83000000  0.97310000  1.0 -0.0692983468
C  C33  1  0.63090000  0.17600000  0.58020000  1.0 0.012023552
C  C34  1  0.36910000  0.17600000  0.41980000  1.0 0.012023552
C  C35  1  0.86910000  0.82400000  0.08020000  1.0 0.012023552
C  C36  1  0.13090000  0.82400000  0.91980000  1.0 0.012023552
C  C37  1  0.88880000  0.31700000  0.62850000  1.0 0.0347052301
C  C38  1  0.11120000  0.31700000  0.37150000  1.0 0.0347052301
C  C39  1  0.61120000  0.68300000  0.12850000  1.0 0.0347052301
C  C40  1  0.38880000  0.68300000  0.87150000  1.0 0.0347052301
C  C41  1  0.00800000  0.30600000  0.57780000  1.0 -0.1473916856
C  C42  1  0.99200000  0.30600000  0.42220000  1.0 -0.1473916856
C  C43  1  0.49200000  0.69400000  0.07780000  1.0 -0.1473916856
C  C44  1  0.50800000  0.69400000  0.92220000  1.0 -0.1473916856
C  C45  1  0.77200000  0.10700000  0.53530000  1.0 -0.0692983468
C  C46  1  0.22800000  0.10700000  0.46470000  1.0 -0.0692983468
C  C47  1  0.72800000  0.89300000  0.03530000  1.0 -0.0692983468
C  C48  1  0.27200000  0.89300000  0.96470000  1.0 -0.0692983468
C  C49  1  0.65800000  0.11500000  0.58760000  1.0 0.0199603277
C  C50  1  0.34200000  0.11500000  0.41240000  1.0 0.0199603277
C  C51  1  0.84200000  0.88500000  0.08760000  1.0 0.0199603277
C  C52  1  0.15800000  0.88500000  0.91240000  1.0 0.0199603277
N  N1  1  0.71270000  0.22750000  0.63351000  1.0 -0.1599407655
N  N2  1  0.28730000  0.22750000  0.36649000  1.0 -0.1599407655
N  N3  1  0.78730000  0.77250000  0.13351000  1.0 -0.1599407655
N  N4  1  0.21270000  0.77250000  0.86649000  1.0 -0.1599407655
O  O1  1  0.75060000  0.40290000  0.75175000  1.0 -0.5495277805
O  O2  1  0.24940000  0.40290000  0.24825000  1.0 -0.5495277805
O  O3  1  0.74940000  0.59710000  0.25175000  1.0 -0.5495277805
O  O4  1  0.25060000  0.59710000  0.74825000  1.0 -0.5495277805
O  O5  1  0.89870000  0.54700000  0.82702000  1.0 -0.5554037553
O  O6  1  0.10130000  0.54700000  0.17298000  1.0 -0.5554037553
O  O7  1  0.60130000  0.45300000  0.32702000  1.0 -0.5554037553
O  O8  1  0.39870000  0.45300000  0.67298000  1.0 -0.5554037553
O  O9  1  0.42390000  0.21920000  0.79938000  1.0 -0.5167794985
O  O10  1  0.57610000  0.21920000  0.20062000  1.0 -0.5167794985
O  O11  1  0.07610000  0.78080000  0.29938000  1.0 -0.5167794985
O  O12  1  0.92390000  0.78080000  0.70062000  1.0 -0.5167794985
O  O13  1  0.68680000  0.02060000  0.74099000  1.0 -0.5011900825
O  O14  1  0.31320000  0.02060000  0.25901000  1.0 -0.5011900825
O  O15  1  0.81320000  0.97940000  0.24099000  1.0 -0.5011900825
O  O16  1  0.18680000  0.97940000  0.75901000  1.0 -0.5011900825
O  O17  1  0.82500000  0.91770000  0.82546000  1.0 -0.5261412126
O  O18  1  0.17500000  0.91770000  0.17454000  1.0 -0.5261412126
O  O19  1  0.67500000  0.08230000  0.32546000  1.0 -0.5261412126
O  O20  1  0.32500000  0.08230000  0.67454000  1.0 -0.5261412126
