# DDEC6 charges by PACMAN v1.1 (https://github.com/mtap-research/PACMAN-charge/)
data_XEKCOH_ASR_pacman
_symmetry_space_group_name_H-M   'P 1'
_cell_length_a   22.05240000
_cell_length_b   20.04110000
_cell_length_c   16.62540000
_cell_angle_alpha   73.27780000
_cell_angle_beta   60.50070000
_cell_angle_gamma   46.22150000
_symmetry_Int_Tables_number   1
_chemical_formula_structural   K2La2Pt4C16N16O
_chemical_formula_sum   'K8 La8 Pt16 C64 N64 O4'
_cell_volume   4600.98693946
_cell_formula_units_Z   4
loop_
 _symmetry_equiv_pos_site_id
 _symmetry_equiv_pos_as_xyz
  1  'x, y, z'
loop_
 _atom_site_type_symbol
 _atom_site_label
 _atom_site_symmetry_multiplicity
 _atom_site_fract_x
 _atom_site_fract_y
 _atom_site_fract_z
 _atom_site_occupancy
 _atom_site_charge
K  K1  1  0.14359000  0.14359000  0.85641000  1.0 0.8182118873
K  K2  1  0.39359000  0.39359000  0.10641000  1.0 0.8182118873
K  K3  1  0.55735000  0.41105000  0.71303000  1.0 0.8006474118
K  K4  1  0.41105000  0.55735000  0.31857000  1.0 0.8006474118
K  K5  1  0.53697000  0.93143000  0.69265000  1.0 0.8006474118
K  K6  1  0.93143000  0.53697000  0.83895000  1.0 0.8006474118
K  K7  1  0.54499000  0.54499000  0.45501000  1.0 0.7874594669
K  K8  1  0.79499000  0.79499000  0.70501000  1.0 0.7874594669
La  La1  1  0.74594000  0.11826000  0.37034000  1.0 1.4137088994
La  La2  1  0.11826000  0.74594000  0.76546000  1.0 1.41923425
La  La3  1  0.87966000  0.48454000  0.50406000  1.0 1.41923425
La  La4  1  0.48454000  0.87966000  0.13174000  1.0 1.41923425
La  La5  1  0.08532000  0.43456000  0.05232000  1.0 1.2040619592
La  La6  1  0.43456000  0.08532000  0.42780000  1.0 1.2085531692
La  La7  1  0.19768000  0.82220000  0.16468000  1.0 1.2559113245
La  La8  1  0.82220000  0.19768000  0.81544000  1.0 1.2085531692
Pt  Pt1  1  0.90661000  0.28613000  0.22185000  1.0 0.0402966571
Pt  Pt2  1  0.28613000  0.90661000  0.58541000  1.0 0.0469149267
Pt  Pt3  1  0.02815000  0.66459000  0.34339000  1.0 0.0469149267
Pt  Pt4  1  0.66459000  0.02815000  0.96387000  1.0 0.0469149267
Pt  Pt5  1  0.41411000  0.27497000  0.70929000  1.0 0.0402966571
Pt  Pt6  1  0.27497000  0.41411000  0.60163000  1.0 0.0402966571
Pt  Pt7  1  0.54071000  0.64837000  0.83589000  1.0 0.0402966571
Pt  Pt8  1  0.64837000  0.54071000  0.97503000  1.0 0.0402966571
Pt  Pt9  1  0.90215000  0.77707000  0.22515000  1.0 0.0713694955
Pt  Pt10  1  0.77707000  0.90215000  0.09563000  1.0 0.0713694955
Pt  Pt11  1  0.02485000  0.15437000  0.34785000  1.0 0.0713694955
Pt  Pt12  1  0.15437000  0.02485000  0.47293000  1.0 0.0713694955
Pt  Pt13  1  0.40826000  0.78126000  0.70732000  1.0 0.1085099599
Pt  Pt14  1  0.78126000  0.40826000  0.10316000  1.0 0.1085099599
Pt  Pt15  1  0.54268000  0.14684000  0.84174000  1.0 0.1085099599
Pt  Pt16  1  0.14684000  0.54268000  0.46874000  1.0 0.1085099599
C  C1  1  0.00990000  0.18990000  0.11570000  1.0 0.0713694955
C  C2  1  0.18990000  0.00990000  0.68450000  1.0 0.0713694955
C  C3  1  0.13430000  0.56550000  0.24010000  1.0 0.0713694955
C  C4  1  0.56550000  0.13430000  0.06010000  1.0 0.0713694955
C  C5  1  0.85170000  0.22710000  0.27150000  1.0 0.1985358617
C  C6  1  0.22710000  0.85170000  0.64970000  1.0 0.1985358617
C  C7  1  0.97850000  0.60030000  0.39830000  1.0 0.1985358617
C  C8  1  0.60030000  0.97850000  0.02290000  1.0 0.1985358617
C  C9  1  0.80030000  0.38550000  0.32550000  1.0 0.0713694955
C  C10  1  0.38550000  0.80030000  0.48870000  1.0 0.0713694955
C  C11  1  0.92450000  0.76130000  0.44970000  1.0 0.0713694955
C  C12  1  0.76130000  0.92450000  0.86450000  1.0 0.0713694955
C  C13  1  0.96110000  0.34470000  0.17450000  1.0 0.1693865381
C  C14  1  0.34470000  0.96110000  0.51970000  1.0 0.1693865381
C  C15  1  0.07550000  0.73030000  0.28890000  1.0 0.1693865381
C  C16  1  0.73030000  0.07550000  0.90530000  1.0 0.1693865381
C  C17  1  0.41660000  0.37220000  0.70760000  1.0 0.0594703745
C  C18  1  0.37220000  0.41660000  0.50360000  1.0 0.0594703745
C  C19  1  0.54240000  0.74640000  0.83340000  1.0 0.0594703745
C  C20  1  0.74640000  0.54240000  0.87780000  1.0 0.0594703745
C  C21  1  0.30310000  0.33190000  0.83090000  1.0 0.1985358617
C  C22  1  0.33190000  0.30310000  0.53410000  1.0 0.1985358617
C  C23  1  0.41910000  0.71590000  0.94690000  1.0 0.1985358617
C  C24  1  0.71590000  0.41910000  0.91810000  1.0 0.1985358617
C  C25  1  0.40730000  0.17990000  0.71430000  1.0 0.0713694955
C  C26  1  0.17990000  0.40730000  0.69850000  1.0 0.0713694955
C  C27  1  0.53570000  0.55150000  0.84270000  1.0 0.0713694955
C  C28  1  0.55150000  0.53570000  0.07010000  1.0 0.0713694955
C  C29  1  0.52330000  0.21850000  0.58730000  1.0 0.1937401707
C  C30  1  0.21850000  0.52330000  0.67090000  1.0 0.1937401707
C  C31  1  0.66270000  0.57910000  0.72670000  1.0 0.1937401707
C  C32  1  0.57910000  0.66270000  0.03150000  1.0 0.1937401707
C  C33  1  0.84740000  0.89460000  0.27740000  1.0 0.2110744159
C  C34  1  0.89460000  0.84740000  0.98060000  1.0 0.2110744159
C  C35  1  0.97260000  0.26940000  0.40260000  1.0 0.2110744159
C  C36  1  0.26940000  0.97260000  0.35540000  1.0 0.2110744159
C  C37  1  0.79850000  0.78670000  0.33090000  1.0 0.0058673623
C  C38  1  0.78670000  0.79850000  0.08390000  1.0 0.0017909155
C  C39  1  0.91910000  0.16610000  0.45150000  1.0 0.0058673623
C  C40  1  0.16610000  0.91910000  0.46330000  1.0 0.0058673623
C  C41  1  0.95460000  0.65980000  0.17700000  1.0 0.1693865381
C  C42  1  0.65980000  0.95460000  0.20860000  1.0 0.1693865381
C  C43  1  0.07300000  0.04140000  0.29540000  1.0 0.1693865381
C  C44  1  0.04140000  0.07300000  0.59020000  1.0 0.1693865381
C  C45  1  0.00350000  0.77030000  0.12070000  1.0 0.0017909155
C  C46  1  0.77030000  0.00350000  0.10550000  1.0 0.0017909155
C  C47  1  0.12930000  0.14450000  0.24650000  1.0 0.0017909155
C  C48  1  0.14450000  0.12930000  0.47970000  1.0 0.0017909155
C  C49  1  0.52000000  0.74780000  0.59940000  1.0 0.0402966571
C  C50  1  0.74780000  0.52000000  0.13280000  1.0 0.0402966571
C  C51  1  0.65060000  0.11720000  0.73000000  1.0 0.0402966571
C  C52  1  0.11720000  0.65060000  0.50220000  1.0 0.0402966571
C  C53  1  0.37880000  0.89440000  0.73140000  1.0 0.095303244
C  C54  1  0.89440000  0.37880000  0.99540000  1.0 0.095303244
C  C55  1  0.51860000  0.25460000  0.87120000  1.0 0.095303244
C  C56  1  0.25460000  0.51860000  0.35560000  1.0 0.094215792
C  C57  1  0.29290000  0.81610000  0.81370000  1.0 0.0304751846
C  C58  1  0.81610000  0.29290000  0.07730000  1.0 0.0304751846
C  C59  1  0.43630000  0.17270000  0.95710000  1.0 0.0304751846
C  C60  1  0.17270000  0.43630000  0.43390000  1.0 0.0304751846
C  C61  1  0.43930000  0.66710000  0.67830000  1.0 0.1281715523
C  C62  1  0.66710000  0.43930000  0.21530000  1.0 0.1281715523
C  C63  1  0.57170000  0.03470000  0.81070000  1.0 0.1281715523
C  C64  1  0.03470000  0.57170000  0.58290000  1.0 0.1281715523
N  N1  1  0.06570000  0.13690000  0.05350000  1.0 -0.3218371381
N  N2  1  0.13690000  0.06570000  0.74390000  1.0 -0.3218371381
N  N3  1  0.19650000  0.50610000  0.18430000  1.0 -0.3218371381
N  N4  1  0.50610000  0.19650000  0.11310000  1.0 -0.3218371381
N  N5  1  0.82024000  0.19404000  0.30016000  1.0 -0.5330836584
N  N6  1  0.19404000  0.82024000  0.68556000  1.0 -0.5214363197
N  N7  1  0.94984000  0.56444000  0.42976000  1.0 -0.5214363197
N  N8  1  0.56444000  0.94984000  0.05596000  1.0 -0.5214363197
N  N9  1  0.73990000  0.44010000  0.38610000  1.0 -0.3764663298
N  N10  1  0.44010000  0.73990000  0.43390000  1.0 -0.3764663298
N  N11  1  0.86390000  0.81610000  0.51010000  1.0 -0.3764663298
N  N12  1  0.81610000  0.86390000  0.80990000  1.0 -0.3764663298
N  N13  1  0.99220000  0.37840000  0.14900000  1.0 -0.4784075876
N  N14  1  0.37840000  0.99220000  0.48040000  1.0 -0.4737510939
N  N15  1  0.10100000  0.76960000  0.25780000  1.0 -0.4784075876
N  N16  1  0.76960000  0.10100000  0.87160000  1.0 -0.4737510939
N  N17  1  0.41530000  0.42990000  0.70910000  1.0 -0.3218371381
N  N18  1  0.42990000  0.41530000  0.44570000  1.0 -0.3218371381
N  N19  1  0.54090000  0.80430000  0.83470000  1.0 -0.3218371381
N  N20  1  0.80430000  0.54090000  0.82010000  1.0 -0.3218371381
N  N21  1  0.23780000  0.36300000  0.89820000  1.0 -0.460105281
N  N22  1  0.36300000  0.23780000  0.50100000  1.0 -0.460105281
N  N23  1  0.35180000  0.74900000  0.01220000  1.0 -0.460105281
N  N24  1  0.74900000  0.35180000  0.88700000  1.0 -0.460105281
N  N25  1  0.39820000  0.12840000  0.72100000  1.0 -0.3466399123
N  N26  1  0.12840000  0.39820000  0.75240000  1.0 -0.3466399123
N  N27  1  0.52900000  0.49760000  0.85180000  1.0 -0.3466399123
N  N28  1  0.49760000  0.52900000  0.12160000  1.0 -0.3466399123
N  N29  1  0.58610000  0.18610000  0.51670000  1.0 -0.5330836584
N  N30  1  0.18610000  0.58610000  0.71110000  1.0 -0.5356037875
N  N31  1  0.73330000  0.53890000  0.66390000  1.0 -0.5330836584
N  N32  1  0.53890000  0.73330000  0.06390000  1.0 -0.5330836584
N  N33  1  0.81690000  0.96050000  0.30930000  1.0 -0.4889509638
N  N34  1  0.96050000  0.81690000  0.91330000  1.0 -0.4889509638
N  N35  1  0.94070000  0.33670000  0.43310000  1.0 -0.4889509638
N  N36  1  0.33670000  0.94070000  0.28950000  1.0 -0.4889509638
N  N37  1  0.73860000  0.79320000  0.39080000  1.0 -0.1661626458
N  N38  1  0.79320000  0.73860000  0.07740000  1.0 -0.1540680935
N  N39  1  0.85920000  0.17260000  0.51140000  1.0 -0.1661626458
N  N40  1  0.17260000  0.85920000  0.45680000  1.0 -0.1661626458
N  N41  1  0.98310000  0.59150000  0.15310000  1.0 -0.460105281
N  N42  1  0.59150000  0.98310000  0.27230000  1.0 -0.460105281
N  N43  1  0.09690000  0.97770000  0.26690000  1.0 -0.460105281
N  N44  1  0.97770000  0.09690000  0.65850000  1.0 -0.460105281
N  N45  1  0.06080000  0.76840000  0.06180000  1.0 -0.1395822779
N  N46  1  0.76840000  0.06080000  0.10900000  1.0 -0.1395822779
N  N47  1  0.18820000  0.14100000  0.18920000  1.0 -0.1395822779
N  N48  1  0.14100000  0.18820000  0.48160000  1.0 -0.1395822779
N  N49  1  0.58430000  0.73030000  0.53550000  1.0 -0.2201277723
N  N50  1  0.73030000  0.58430000  0.14990000  1.0 -0.2201277723
N  N51  1  0.71450000  0.10010000  0.66570000  1.0 -0.2201277723
N  N52  1  0.10010000  0.71450000  0.51970000  1.0 -0.2201277723
N  N53  1  0.36320000  0.95940000  0.74100000  1.0 -0.3936138113
N  N54  1  0.95940000  0.36320000  0.93640000  1.0 -0.3936138113
N  N55  1  0.50900000  0.31360000  0.88680000  1.0 -0.3936138113
N  N56  1  0.31360000  0.50900000  0.29060000  1.0 -0.3936138113
N  N57  1  0.22760000  0.83540000  0.87300000  1.0 -0.1395822779
N  N58  1  0.83540000  0.22760000  0.06400000  1.0 -0.1395822779
N  N59  1  0.37700000  0.18600000  0.02240000  1.0 -0.1395822779
N  N60  1  0.18600000  0.37700000  0.41460000  1.0 -0.1395822779
N  N61  1  0.45910000  0.60390000  0.65570000  1.0 -0.4529961531
N  N62  1  0.60390000  0.45910000  0.28130000  1.0 -0.4529961531
N  N63  1  0.59430000  0.96870000  0.79090000  1.0 -0.4529961531
N  N64  1  0.96870000  0.59430000  0.64610000  1.0 -0.4529961531
O  O1  1  0.58220000  0.38680000  0.53300000  1.0 -0.4017700364
O  O2  1  0.38680000  0.58220000  0.49800000  1.0 -0.4017700364
O  O3  1  0.71700000  0.75200000  0.66780000  1.0 -0.4017700364
O  O4  1  0.75200000  0.71700000  0.86320000  1.0 -0.4017700364
