# DDEC6 charges by PACMAN v1.1 (https://github.com/mtap-research/PACMAN-charge/)
data_XEKDAW_ASR_pacman
_symmetry_space_group_name_H-M   'P 1'
_cell_length_a   11.22000000
_cell_length_b   14.92260000
_cell_length_c   16.46750000
_cell_angle_alpha   90.00000000
_cell_angle_beta   90.00000000
_cell_angle_gamma   90.00000000
_symmetry_Int_Tables_number   1
_chemical_formula_structural   Co2H4C9NO10
_chemical_formula_sum   'Co8 H16 C36 N4 O40'
_cell_volume   2757.17941191
_cell_formula_units_Z   4
loop_
 _symmetry_equiv_pos_site_id
 _symmetry_equiv_pos_as_xyz
  1  'x, y, z'
loop_
 _atom_site_type_symbol
 _atom_site_label
 _atom_site_symmetry_multiplicity
 _atom_site_fract_x
 _atom_site_fract_y
 _atom_site_fract_z
 _atom_site_occupancy
 _atom_site_charge
Co  Co1  1  0.16251000  0.33023000  0.70186000  1.0 1.1133580189
Co  Co2  1  0.50479000  0.51140000  0.10391000  1.0 0.9393187146
Co  Co3  1  0.33749000  0.66977000  0.20186000  1.0 1.1133580189
Co  Co4  1  0.99521000  0.48860000  0.60391000  1.0 0.9393187146
Co  Co5  1  0.83749000  0.83023000  0.79814000  1.0 1.1133580189
Co  Co6  1  0.49521000  0.01140000  0.39609000  1.0 0.9393187146
Co  Co7  1  0.66251000  0.16977000  0.29814000  1.0 1.1133580189
Co  Co8  1  0.00479000  0.98860000  0.89609000  1.0 0.9393187146
H  H1  1  0.43050000  0.34980000  0.72580000  1.0 0.543281598
H  H2  1  0.42450000  0.29660000  0.27400000  1.0 0.1425508242
H  H3  1  0.25060000  0.49540000  0.38730000  1.0 0.1475685071
H  H4  1  0.30390000  0.26030000  0.49980000  1.0 0.1475685071
H  H5  1  0.06950000  0.65020000  0.22580000  1.0 0.543281598
H  H6  1  0.07550000  0.70340000  0.77400000  1.0 0.1425508242
H  H7  1  0.24940000  0.50460000  0.88730000  1.0 0.1475685071
H  H8  1  0.19610000  0.73970000  0.99980000  1.0 0.1475685071
H  H9  1  0.56950000  0.84980000  0.77420000  1.0 0.543281598
H  H10  1  0.57550000  0.79660000  0.22600000  1.0 0.1425508242
H  H11  1  0.74940000  0.99540000  0.11270000  1.0 0.1475685071
H  H12  1  0.69610000  0.76030000  0.00020000  1.0 0.1475685071
H  H13  1  0.93050000  0.15020000  0.27420000  1.0 0.543281598
H  H14  1  0.92450000  0.20340000  0.72600000  1.0 0.1425508242
H  H15  1  0.75060000  0.00460000  0.61270000  1.0 0.1475685071
H  H16  1  0.80390000  0.23970000  0.50020000  1.0 0.1475685071
C  C1  1  0.37210000  0.26490000  0.38730000  1.0 0.0019849268
C  C2  1  0.19990000  0.41490000  0.52930000  1.0 0.596143512
C  C3  1  0.38630000  0.31880000  0.31990000  1.0 -0.0921400767
C  C4  1  0.36830000  0.47010000  0.25090000  1.0 0.606184138
C  C5  1  0.28170000  0.43770000  0.38740000  1.0 -0.0730834122
C  C6  1  0.34350000  0.40650000  0.32040000  1.0 0.0019849268
C  C7  1  0.26590000  0.38330000  0.45470000  1.0 0.0019849268
C  C8  1  0.31280000  0.29670000  0.45440000  1.0 -0.0730834122
C  C9  1  0.41920000  0.17060000  0.39080000  1.0 0.581382845
C  C10  1  0.12790000  0.73510000  0.88730000  1.0 0.0019849268
C  C11  1  0.30010000  0.58510000  0.02930000  1.0 0.596143512
C  C12  1  0.11370000  0.68120000  0.81990000  1.0 -0.0921400767
C  C13  1  0.13170000  0.52990000  0.75090000  1.0 0.606184138
C  C14  1  0.21830000  0.56230000  0.88740000  1.0 -0.0730834122
C  C15  1  0.15650000  0.59350000  0.82040000  1.0 0.0019849268
C  C16  1  0.23410000  0.61670000  0.95470000  1.0 0.0019849268
C  C17  1  0.18720000  0.70330000  0.95440000  1.0 -0.0730834122
C  C18  1  0.08080000  0.82940000  0.89080000  1.0 0.581382845
C  C19  1  0.62790000  0.76490000  0.11270000  1.0 0.0019849268
C  C20  1  0.80010000  0.91490000  0.97070000  1.0 0.596143512
C  C21  1  0.61370000  0.81880000  0.18010000  1.0 -0.0921400767
C  C22  1  0.63170000  0.97010000  0.24910000  1.0 0.606184138
C  C23  1  0.71830000  0.93770000  0.11260000  1.0 -0.0730834122
C  C24  1  0.65650000  0.90650000  0.17960000  1.0 0.0019849268
C  C25  1  0.73410000  0.88330000  0.04530000  1.0 0.0019849268
C  C26  1  0.68720000  0.79670000  0.04560000  1.0 -0.0752837081
C  C27  1  0.58080000  0.67060000  0.10920000  1.0 0.581382845
C  C28  1  0.87210000  0.23510000  0.61270000  1.0 0.0019849268
C  C29  1  0.69990000  0.08510000  0.47070000  1.0 0.596143512
C  C30  1  0.88630000  0.18120000  0.68010000  1.0 -0.0921400767
C  C31  1  0.86830000  0.02990000  0.74910000  1.0 0.606184138
C  C32  1  0.78170000  0.06230000  0.61260000  1.0 -0.0730834122
C  C33  1  0.84350000  0.09350000  0.67960000  1.0 0.0019849268
C  C34  1  0.76590000  0.11670000  0.54530000  1.0 0.0019849268
C  C35  1  0.81280000  0.20330000  0.54560000  1.0 -0.0730834122
C  C36  1  0.91920000  0.32940000  0.60920000  1.0 0.581382845
N  N1  1  0.69980000  0.41830000  0.09070000  1.0 0.58603823
N  N2  1  0.80020000  0.58170000  0.59070000  1.0 0.58603823
N  N3  1  0.30020000  0.91830000  0.40930000  1.0 0.58603823
N  N4  1  0.19980000  0.08170000  0.90930000  1.0 0.581382845
O  O1  1  0.39580000  0.12240000  0.44910000  1.0 -0.4381489996
O  O2  1  0.61080000  0.41940000  0.04060000  1.0 -0.4381489996
O  O3  1  0.68920000  0.46530000  0.15040000  1.0 -0.3597470541
O  O4  1  0.33940000  0.30960000  0.74080000  1.0 -0.9717555065
O  O5  1  0.32890000  0.54700000  0.25851000  1.0 -0.5134280044
O  O6  1  0.22430000  0.37700000  0.59398000  1.0 -0.5518409629
O  O7  1  0.12450000  0.47590000  0.51996000  1.0 -0.504452752
O  O8  1  0.43190000  0.44130000  0.19341000  1.0 -0.5324751158
O  O9  1  0.48400000  0.14067000  0.33340000  1.0 -0.6168842484
O  O10  1  0.78500000  0.37350000  0.07310000  1.0 -0.2424472105
O  O11  1  0.10420000  0.87760000  0.94910000  1.0 -0.4381489996
O  O12  1  0.88920000  0.58060000  0.54060000  1.0 -0.4381489996
O  O13  1  0.81080000  0.53470000  0.65040000  1.0 -0.3597470541
O  O14  1  0.16060000  0.69040000  0.24080000  1.0 -0.9717555065
O  O15  1  0.17110000  0.45300000  0.75851000  1.0 -0.5134280044
O  O16  1  0.27570000  0.62300000  0.09398000  1.0 -0.5518409629
O  O17  1  0.37550000  0.52410000  0.01996000  1.0 -0.504452752
O  O18  1  0.06810000  0.55870000  0.69341000  1.0 -0.5324751158
O  O19  1  0.01600000  0.85933000  0.83340000  1.0 -0.6168842484
O  O20  1  0.71500000  0.62650000  0.57310000  1.0 -0.2424472105
O  O21  1  0.60420000  0.62240000  0.05090000  1.0 -0.4381489996
O  O22  1  0.38920000  0.91940000  0.45940000  1.0 -0.4381489996
O  O23  1  0.31080000  0.96530000  0.34960000  1.0 -0.3597470541
O  O24  1  0.66060000  0.80960000  0.75920000  1.0 -0.9717555065
O  O25  1  0.67110000  0.04700000  0.24149000  1.0 -0.5134280044
O  O26  1  0.77570000  0.87700000  0.90602000  1.0 -0.5518409629
O  O27  1  0.87550000  0.97590000  0.98004000  1.0 -0.504452752
O  O28  1  0.56810000  0.94130000  0.30659000  1.0 -0.5324751158
O  O29  1  0.51600000  0.64067000  0.16660000  1.0 -0.6168842484
O  O30  1  0.21500000  0.87350000  0.42690000  1.0 -0.2424472105
O  O31  1  0.89580000  0.37760000  0.55090000  1.0 -0.4381489996
O  O32  1  0.11080000  0.08060000  0.95940000  1.0 -0.4381489996
O  O33  1  0.18920000  0.03470000  0.84960000  1.0 -0.3597470541
O  O34  1  0.83940000  0.19040000  0.25920000  1.0 -0.9717555065
O  O35  1  0.82890000  0.95300000  0.74149000  1.0 -0.5134280044
O  O36  1  0.72430000  0.12300000  0.40602000  1.0 -0.5518409629
O  O37  1  0.62450000  0.02410000  0.48004000  1.0 -0.504452752
O  O38  1  0.93190000  0.05870000  0.80659000  1.0 -0.5324751158
O  O39  1  0.98400000  0.35933000  0.66666667  1.0 -0.6168842484
O  O40  1  0.28500000  0.12650000  0.92690000  1.0 -0.2424472105
