# DDEC6 charges by PACMAN v1.1 (https://github.com/mtap-research/PACMAN-charge/)
data_XEKJIH_ASR_pacman
_symmetry_space_group_name_H-M   'P 1'
_cell_length_a   18.12260000
_cell_length_b   18.12260000
_cell_length_c   8.72440000
_cell_angle_alpha   90.00000000
_cell_angle_beta   90.00000000
_cell_angle_gamma   120.00000000
_symmetry_Int_Tables_number   1
_chemical_formula_structural   CuC18(N2O)2
_chemical_formula_sum   'Cu6 C108 N24 O12'
_cell_volume   2481.45960876
_cell_formula_units_Z   6
loop_
 _symmetry_equiv_pos_site_id
 _symmetry_equiv_pos_as_xyz
  1  'x, y, z'
loop_
 _atom_site_type_symbol
 _atom_site_label
 _atom_site_symmetry_multiplicity
 _atom_site_fract_x
 _atom_site_fract_y
 _atom_site_fract_z
 _atom_site_occupancy
 _atom_site_charge
Cu  Cu1  1  0.53639000  0.07279000  0.25000000  1.0 0.3799011652
Cu  Cu2  1  0.92721000  0.46360000  0.25000000  1.0 0.3799011652
Cu  Cu3  1  0.53639000  0.46360000  0.25000000  1.0 0.3799011652
Cu  Cu4  1  0.46360000  0.53639000  0.75000000  1.0 0.3799011652
Cu  Cu5  1  0.07279000  0.53639000  0.75000000  1.0 0.3799011652
Cu  Cu6  1  0.46360000  0.92721000  0.75000000  1.0 0.3799011652
C  C1  1  0.58800000  0.25550000  0.25000000  1.0 0.0903620789
C  C2  1  0.74450000  0.33250000  0.25000000  1.0 0.0903620789
C  C3  1  0.66750000  0.41200000  0.25000000  1.0 0.0903620789
C  C4  1  0.33250000  0.58800000  0.75000000  1.0 0.0903620789
C  C5  1  0.25550000  0.66750000  0.75000000  1.0 0.0903620789
C  C6  1  0.25550000  0.58800000  0.75000000  1.0 0.0903620789
C  C7  1  0.58800000  0.33250000  0.25000000  1.0 0.0903620789
C  C8  1  0.66750000  0.25550000  0.25000000  1.0 0.0903620789
C  C9  1  0.41200000  0.74450000  0.75000000  1.0 0.0903620789
C  C10  1  0.33250000  0.74450000  0.75000000  1.0 0.0903620789
C  C11  1  0.41200000  0.66750000  0.75000000  1.0 0.0903620789
C  C12  1  0.74450000  0.41200000  0.25000000  1.0 0.0903620789
C  C13  1  0.50895000  0.01790000  0.05880000  1.0 -0.2109244338
C  C14  1  0.98210000  0.49105000  0.05880000  1.0 -0.216848456
C  C15  1  0.50895000  0.49105000  0.05880000  1.0 -0.2109244338
C  C16  1  0.49105000  0.50895000  0.55880000  1.0 -0.2109244338
C  C17  1  0.01790000  0.50895000  0.55880000  1.0 -0.2109244338
C  C18  1  0.01790000  0.50895000  0.94120000  1.0 -0.2109244338
C  C19  1  0.50895000  0.49105000  0.44120000  1.0 -0.2109244338
C  C20  1  0.50895000  0.01790000  0.44120000  1.0 -0.2109244338
C  C21  1  0.49105000  0.98210000  0.55880000  1.0 -0.2109244338
C  C22  1  0.49105000  0.98210000  0.94120000  1.0 -0.2109244338
C  C23  1  0.49105000  0.50895000  0.94120000  1.0 -0.2109244338
C  C24  1  0.98210000  0.49105000  0.44120000  1.0 -0.216848456
C  C25  1  0.44430000  0.18400000  0.25000000  1.0 0.0903620789
C  C26  1  0.81600000  0.26030000  0.25000000  1.0 0.0903620789
C  C27  1  0.73970000  0.55570000  0.25000000  1.0 0.0903620789
C  C28  1  0.26030000  0.44430000  0.75000000  1.0 0.0903620789
C  C29  1  0.18400000  0.73970000  0.75000000  1.0 0.0903620789
C  C30  1  0.18400000  0.44430000  0.75000000  1.0 0.0903620789
C  C31  1  0.44430000  0.26030000  0.25000000  1.0 0.0903620789
C  C32  1  0.73970000  0.18400000  0.25000000  1.0 0.0903620789
C  C33  1  0.55570000  0.81600000  0.75000000  1.0 0.0903620789
C  C34  1  0.26030000  0.81600000  0.75000000  1.0 0.0903620789
C  C35  1  0.55570000  0.73970000  0.75000000  1.0 0.0903620789
C  C36  1  0.81600000  0.55570000  0.25000000  1.0 0.0903620789
C  C37  1  0.37120000  0.09140000  0.25000000  1.0 0.0903620789
C  C38  1  0.90860000  0.27980000  0.25000000  1.0 0.0903620789
C  C39  1  0.72020000  0.62880000  0.25000000  1.0 0.0903620789
C  C40  1  0.27980000  0.37120000  0.75000000  1.0 0.0903620789
C  C41  1  0.09140000  0.72020000  0.75000000  1.0 0.0903620789
C  C42  1  0.09140000  0.37120000  0.75000000  1.0 0.0903620789
C  C43  1  0.37120000  0.27980000  0.25000000  1.0 0.0903620789
C  C44  1  0.72020000  0.09140000  0.25000000  1.0 0.0903620789
C  C45  1  0.62880000  0.90860000  0.75000000  1.0 0.0903620789
C  C46  1  0.27980000  0.90860000  0.75000000  1.0 0.0903620789
C  C47  1  0.62880000  0.72020000  0.75000000  1.0 0.0903620789
C  C48  1  0.90860000  0.62880000  0.25000000  1.0 0.0903620789
C  C49  1  0.25200000  0.98600000  0.25000000  1.0 0.0619435007
C  C50  1  0.01400000  0.26600000  0.25000000  1.0 0.0619435007
C  C51  1  0.73400000  0.74800000  0.25000000  1.0 0.0619435007
C  C52  1  0.26600000  0.25200000  0.75000000  1.0 0.0619435007
C  C53  1  0.98600000  0.73400000  0.75000000  1.0 0.0619435007
C  C54  1  0.98600000  0.25200000  0.75000000  1.0 0.0619435007
C  C55  1  0.25200000  0.26600000  0.25000000  1.0 0.0619435007
C  C56  1  0.73400000  0.98600000  0.25000000  1.0 0.0619435007
C  C57  1  0.74800000  0.01400000  0.75000000  1.0 0.0619435007
C  C58  1  0.26600000  0.01400000  0.75000000  1.0 0.0619435007
C  C59  1  0.74800000  0.73400000  0.75000000  1.0 0.0619435007
C  C60  1  0.01400000  0.74800000  0.25000000  1.0 0.0619435007
C  C61  1  0.25100000  0.99600000  0.33500000  1.0 -0.0309622277
C  C62  1  0.00400000  0.25500000  0.33500000  1.0 -0.0309622277
C  C63  1  0.74500000  0.74900000  0.33500000  1.0 -0.0309622277
C  C64  1  0.25500000  0.25100000  0.83500000  1.0 -0.0309622277
C  C65  1  0.99600000  0.74500000  0.83500000  1.0 -0.0309622277
C  C66  1  0.99600000  0.25100000  0.66500000  1.0 -0.0309622277
C  C67  1  0.25100000  0.25500000  0.16500000  1.0 -0.0309622277
C  C68  1  0.74500000  0.99600000  0.16500000  1.0 -0.0309622277
C  C69  1  0.74900000  0.00400000  0.83500000  1.0 -0.0309622277
C  C70  1  0.25500000  0.00400000  0.66500000  1.0 -0.0309622277
C  C71  1  0.74900000  0.74500000  0.66500000  1.0 -0.0309622277
C  C72  1  0.00400000  0.74900000  0.16500000  1.0 -0.0309622277
C  C73  1  0.74900000  0.00400000  0.66500000  1.0 -0.0309622277
C  C74  1  0.99600000  0.74500000  0.66500000  1.0 -0.0309622277
C  C75  1  0.25500000  0.25100000  0.66500000  1.0 -0.0309622277
C  C76  1  0.74500000  0.74900000  0.16500000  1.0 -0.0309622277
C  C77  1  0.00400000  0.25500000  0.16500000  1.0 -0.0309622277
C  C78  1  0.00400000  0.74900000  0.33500000  1.0 -0.0309622277
C  C79  1  0.74900000  0.74500000  0.83500000  1.0 -0.0309622277
C  C80  1  0.25500000  0.00400000  0.83500000  1.0 -0.0309622277
C  C81  1  0.25100000  0.99600000  0.16500000  1.0 -0.0309622277
C  C82  1  0.74500000  0.99600000  0.33500000  1.0 -0.0309622277
C  C83  1  0.25100000  0.25500000  0.33500000  1.0 -0.0309622277
C  C84  1  0.99600000  0.25100000  0.83500000  1.0 -0.0309622277
C  C85  1  0.34100000  0.03700000  0.31700000  1.0 0.0419539382
C  C86  1  0.96300000  0.30400000  0.31700000  1.0 0.0419539382
C  C87  1  0.69600000  0.65900000  0.31700000  1.0 0.0419539382
C  C88  1  0.30400000  0.34100000  0.81700000  1.0 0.0419539382
C  C89  1  0.03700000  0.69600000  0.81700000  1.0 0.0419539382
C  C90  1  0.03700000  0.34100000  0.68300000  1.0 0.0419539382
C  C91  1  0.34100000  0.30400000  0.18300000  1.0 0.0419539382
C  C92  1  0.69600000  0.03700000  0.18300000  1.0 0.0419539382
C  C93  1  0.65900000  0.96300000  0.81700000  1.0 0.0419539382
C  C94  1  0.30400000  0.96300000  0.68300000  1.0 0.0419539382
C  C95  1  0.65900000  0.69600000  0.68300000  1.0 0.0419539382
C  C96  1  0.96300000  0.65900000  0.18300000  1.0 0.0419539382
C  C97  1  0.65900000  0.96300000  0.68300000  1.0 0.0419539382
C  C98  1  0.03700000  0.69600000  0.68300000  1.0 0.0419539382
C  C99  1  0.30400000  0.34100000  0.68300000  1.0 0.0419539382
C  C100  1  0.69600000  0.65900000  0.18300000  1.0 0.0419539382
C  C101  1  0.96300000  0.30400000  0.18300000  1.0 0.0419539382
C  C102  1  0.96300000  0.65900000  0.31700000  1.0 0.0419539382
C  C103  1  0.65900000  0.69600000  0.81700000  1.0 0.0419539382
C  C104  1  0.30400000  0.96300000  0.81700000  1.0 0.0419539382
C  C105  1  0.34100000  0.03700000  0.18300000  1.0 0.0419539382
C  C106  1  0.69600000  0.03700000  0.31700000  1.0 0.0419539382
C  C107  1  0.34100000  0.30400000  0.31700000  1.0 0.0419539382
C  C108  1  0.03700000  0.34100000  0.81700000  1.0 0.0419539382
N  N1  1  0.51440000  0.17930000  0.25000000  1.0 -0.3069886906
N  N2  1  0.82070000  0.33510000  0.25000000  1.0 -0.3036836317
N  N3  1  0.66490000  0.48560000  0.25000000  1.0 -0.3036836317
N  N4  1  0.33510000  0.51440000  0.75000000  1.0 -0.3069886906
N  N5  1  0.17930000  0.66490000  0.75000000  1.0 -0.3069886906
N  N6  1  0.17930000  0.51440000  0.75000000  1.0 -0.3069886906
N  N7  1  0.51440000  0.33510000  0.25000000  1.0 -0.3036836317
N  N8  1  0.66490000  0.17930000  0.25000000  1.0 -0.3069886906
N  N9  1  0.48560000  0.82070000  0.75000000  1.0 -0.3069886906
N  N10  1  0.33510000  0.82070000  0.75000000  1.0 -0.3069886906
N  N11  1  0.48560000  0.66490000  0.75000000  1.0 -0.3069886906
N  N12  1  0.82070000  0.48560000  0.25000000  1.0 -0.3036836317
N  N13  1  0.32230000  0.03010000  0.25000000  1.0 -0.0309622277
N  N14  1  0.96990000  0.29220000  0.25000000  1.0 -0.0309622277
N  N15  1  0.70780000  0.67770000  0.25000000  1.0 -0.0236141268
N  N16  1  0.29220000  0.32230000  0.75000000  1.0 -0.0309622277
N  N17  1  0.03010000  0.70780000  0.75000000  1.0 -0.0236141268
N  N18  1  0.03010000  0.32230000  0.75000000  1.0 -0.0236141268
N  N19  1  0.32230000  0.29220000  0.25000000  1.0 -0.0309622277
N  N20  1  0.70780000  0.03010000  0.25000000  1.0 -0.0236141268
N  N21  1  0.67770000  0.96990000  0.75000000  1.0 -0.0236141268
N  N22  1  0.29220000  0.96990000  0.75000000  1.0 -0.0236141268
N  N23  1  0.67770000  0.70780000  0.75000000  1.0 -0.0236141268
N  N24  1  0.96990000  0.67770000  0.25000000  1.0 -0.0236141268
O  O1  1  0.36290000  0.12840000  0.25000000  1.0 0.0009312041
O  O2  1  0.87160000  0.23450000  0.25000000  1.0 -0.0017790308
O  O3  1  0.76550000  0.63710000  0.25000000  1.0 -0.0017790308
O  O4  1  0.23450000  0.36290000  0.75000000  1.0 -0.0017790308
O  O5  1  0.12840000  0.76550000  0.75000000  1.0 -0.0017790308
O  O6  1  0.12840000  0.36290000  0.75000000  1.0 -0.0017790308
O  O7  1  0.36290000  0.23450000  0.25000000  1.0 0.0009312041
O  O8  1  0.76550000  0.12840000  0.25000000  1.0 0.0009312041
O  O9  1  0.63710000  0.87160000  0.75000000  1.0 -0.0017790308
O  O10  1  0.23450000  0.87160000  0.75000000  1.0 -0.0017790308
O  O11  1  0.63710000  0.76550000  0.75000000  1.0 -0.0017790308
O  O12  1  0.87160000  0.63710000  0.25000000  1.0 -0.0017790308
