# DDEC6 charges by PACMAN v1.1 (https://github.com/mtap-research/PACMAN-charge/)
data_XEKJON_FSR_pacman
_symmetry_space_group_name_H-M   'P 1'
_cell_length_a   18.03400000
_cell_length_b   18.03400000
_cell_length_c   8.79100000
_cell_angle_alpha   90.00000000
_cell_angle_beta   90.00000000
_cell_angle_gamma   120.00000000
_symmetry_Int_Tables_number   1
_chemical_formula_structural   CuC22(N2O)2
_chemical_formula_sum   'Cu6 C132 N24 O12'
_cell_volume   2476.01369478
_cell_formula_units_Z   6
loop_
 _symmetry_equiv_pos_site_id
 _symmetry_equiv_pos_as_xyz
  1  'x, y, z'
loop_
 _atom_site_type_symbol
 _atom_site_label
 _atom_site_symmetry_multiplicity
 _atom_site_fract_x
 _atom_site_fract_y
 _atom_site_fract_z
 _atom_site_occupancy
 _atom_site_charge
Cu  Cu1  1  0.53610000  0.07220000  0.75000000  1.0 0.2870039069
Cu  Cu2  1  0.92780000  0.46390000  0.75000000  1.0 0.2870039069
Cu  Cu3  1  0.53610000  0.46390000  0.75000000  1.0 0.2870039069
Cu  Cu4  1  0.46390000  0.53610000  0.25000000  1.0 0.2870039069
Cu  Cu5  1  0.07220000  0.53610000  0.25000000  1.0 0.2870039069
Cu  Cu6  1  0.46390000  0.92780000  0.25000000  1.0 0.2870039069
C  C1  1  0.50860000  0.01720000  0.55850000  1.0 -0.1602858947
C  C2  1  0.98280000  0.49140000  0.55850000  1.0 -0.1602858947
C  C3  1  0.50860000  0.49140000  0.55850000  1.0 -0.1602858947
C  C4  1  0.49140000  0.50860000  0.05850000  1.0 -0.1525023656
C  C5  1  0.01720000  0.50860000  0.05850000  1.0 -0.1525023656
C  C6  1  0.01720000  0.50860000  0.44150000  1.0 -0.1602858947
C  C7  1  0.50860000  0.49140000  0.94150000  1.0 -0.1602858947
C  C8  1  0.50860000  0.01720000  0.94150000  1.0 -0.1602858947
C  C9  1  0.49140000  0.98280000  0.05850000  1.0 -0.1602858947
C  C10  1  0.49140000  0.98280000  0.44150000  1.0 -0.1602858947
C  C11  1  0.49140000  0.50860000  0.44150000  1.0 -0.1602858947
C  C12  1  0.98280000  0.49140000  0.94150000  1.0 -0.1602858947
C  C13  1  0.58820000  0.25570000  0.75000000  1.0 0.0798925787
C  C14  1  0.74430000  0.33250000  0.75000000  1.0 0.0798925787
C  C15  1  0.66750000  0.41180000  0.75000000  1.0 0.0798925787
C  C16  1  0.33250000  0.58820000  0.25000000  1.0 0.0798925787
C  C17  1  0.25570000  0.66750000  0.25000000  1.0 0.0798925787
C  C18  1  0.25570000  0.58820000  0.25000000  1.0 0.0798925787
C  C19  1  0.58820000  0.33250000  0.75000000  1.0 0.0798925787
C  C20  1  0.66750000  0.25570000  0.75000000  1.0 0.0798925787
C  C21  1  0.41180000  0.74430000  0.25000000  1.0 0.0798925787
C  C22  1  0.33250000  0.74430000  0.25000000  1.0 0.0798925787
C  C23  1  0.41180000  0.66750000  0.25000000  1.0 0.0798925787
C  C24  1  0.74430000  0.41180000  0.75000000  1.0 0.0798925787
C  C25  1  0.44290000  0.18240000  0.75000000  1.0 0.0932476184
C  C26  1  0.81760000  0.26050000  0.75000000  1.0 0.0954721867
C  C27  1  0.73950000  0.55710000  0.75000000  1.0 0.0932476184
C  C28  1  0.26050000  0.44290000  0.25000000  1.0 0.0954721867
C  C29  1  0.18240000  0.73950000  0.25000000  1.0 0.0954721867
C  C30  1  0.18240000  0.44290000  0.25000000  1.0 0.0954721867
C  C31  1  0.44290000  0.26050000  0.75000000  1.0 0.0954721867
C  C32  1  0.73950000  0.18240000  0.75000000  1.0 0.0932476184
C  C33  1  0.55710000  0.81760000  0.25000000  1.0 0.0954721867
C  C34  1  0.26050000  0.81760000  0.25000000  1.0 0.0954721867
C  C35  1  0.55710000  0.73950000  0.25000000  1.0 0.0954721867
C  C36  1  0.81760000  0.55710000  0.75000000  1.0 0.0932476184
C  C37  1  0.36900000  0.09550000  0.75000000  1.0 0.0225437286
C  C38  1  0.90450000  0.27350000  0.75000000  1.0 0.0225437286
C  C39  1  0.72650000  0.63100000  0.75000000  1.0 0.0225437286
C  C40  1  0.27350000  0.36900000  0.25000000  1.0 0.0093234927
C  C41  1  0.09550000  0.72650000  0.25000000  1.0 0.0093234927
C  C42  1  0.09550000  0.36900000  0.25000000  1.0 0.0093234927
C  C43  1  0.36900000  0.27350000  0.75000000  1.0 0.0093234927
C  C44  1  0.72650000  0.09550000  0.75000000  1.0 0.0225437286
C  C45  1  0.63100000  0.90450000  0.25000000  1.0 0.0093234927
C  C46  1  0.27350000  0.90450000  0.25000000  1.0 0.0093234927
C  C47  1  0.63100000  0.72650000  0.25000000  1.0 0.0093234927
C  C48  1  0.90450000  0.63100000  0.75000000  1.0 0.0225437286
C  C49  1  0.35300000  0.03260000  0.75000000  1.0 0.0798925787
C  C50  1  0.96740000  0.32040000  0.75000000  1.0 0.0798925787
C  C51  1  0.67960000  0.64700000  0.75000000  1.0 0.0798925787
C  C52  1  0.32040000  0.35300000  0.25000000  1.0 0.0798925787
C  C53  1  0.03260000  0.67960000  0.25000000  1.0 0.0798925787
C  C54  1  0.03260000  0.35300000  0.25000000  1.0 0.0798925787
C  C55  1  0.35300000  0.32040000  0.75000000  1.0 0.0798925787
C  C56  1  0.67960000  0.03260000  0.75000000  1.0 0.0798925787
C  C57  1  0.64700000  0.96740000  0.25000000  1.0 0.0798925787
C  C58  1  0.32040000  0.96740000  0.25000000  1.0 0.0798925787
C  C59  1  0.64700000  0.67960000  0.25000000  1.0 0.0798925787
C  C60  1  0.96740000  0.64700000  0.75000000  1.0 0.0798925787
C  C61  1  0.24200000  0.98800000  0.70000000  1.0 0.0093234927
C  C62  1  0.01200000  0.25400000  0.70000000  1.0 0.0093234927
C  C63  1  0.74600000  0.75800000  0.70000000  1.0 0.0093234927
C  C64  1  0.25400000  0.24200000  0.20000000  1.0 0.0093234927
C  C65  1  0.98800000  0.74600000  0.20000000  1.0 0.0093234927
C  C66  1  0.98800000  0.24200000  0.30000000  1.0 0.0093234927
C  C67  1  0.24200000  0.25400000  0.80000000  1.0 0.0093234927
C  C68  1  0.74600000  0.98800000  0.80000000  1.0 0.0093234927
C  C69  1  0.75800000  0.01200000  0.20000000  1.0 0.0093234927
C  C70  1  0.25400000  0.01200000  0.30000000  1.0 0.0093234927
C  C71  1  0.75800000  0.74600000  0.30000000  1.0 0.0093234927
C  C72  1  0.01200000  0.75800000  0.80000000  1.0 0.0093234927
C  C73  1  0.75800000  0.01200000  0.30000000  1.0 0.0093234927
C  C74  1  0.98800000  0.74600000  0.30000000  1.0 0.0093234927
C  C75  1  0.25400000  0.24200000  0.30000000  1.0 0.0093234927
C  C76  1  0.74600000  0.75800000  0.80000000  1.0 0.0093234927
C  C77  1  0.01200000  0.25400000  0.80000000  1.0 0.0093234927
C  C78  1  0.01200000  0.75800000  0.70000000  1.0 0.0093234927
C  C79  1  0.75800000  0.74600000  0.20000000  1.0 0.0093234927
C  C80  1  0.25400000  0.01200000  0.20000000  1.0 0.0093234927
C  C81  1  0.24200000  0.98800000  0.80000000  1.0 0.0093234927
C  C82  1  0.74600000  0.98800000  0.70000000  1.0 0.0093234927
C  C83  1  0.24200000  0.25400000  0.70000000  1.0 0.0093234927
C  C84  1  0.98800000  0.24200000  0.20000000  1.0 0.0093234927
C  C85  1  0.33800000  0.03400000  0.68000000  1.0 0.0225437286
C  C86  1  0.96600000  0.30400000  0.68000000  1.0 0.0225437286
C  C87  1  0.69600000  0.66200000  0.68000000  1.0 0.0225437286
C  C88  1  0.30400000  0.33800000  0.18000000  1.0 0.0225437286
C  C89  1  0.03400000  0.69600000  0.18000000  1.0 0.0225437286
C  C90  1  0.03400000  0.33800000  0.32000000  1.0 0.0225437286
C  C91  1  0.33800000  0.30400000  0.82000000  1.0 0.0225437286
C  C92  1  0.69600000  0.03400000  0.82000000  1.0 0.0225437286
C  C93  1  0.66200000  0.96600000  0.18000000  1.0 0.0225437286
C  C94  1  0.30400000  0.96600000  0.32000000  1.0 0.0225437286
C  C95  1  0.66200000  0.69600000  0.32000000  1.0 0.0225437286
C  C96  1  0.96600000  0.66200000  0.82000000  1.0 0.0225437286
C  C97  1  0.66200000  0.96600000  0.32000000  1.0 0.0225437286
C  C98  1  0.03400000  0.69600000  0.32000000  1.0 0.0225437286
C  C99  1  0.30400000  0.33800000  0.32000000  1.0 0.0225437286
C  C100  1  0.69600000  0.66200000  0.82000000  1.0 0.0225437286
C  C101  1  0.96600000  0.30400000  0.82000000  1.0 0.0225437286
C  C102  1  0.96600000  0.66200000  0.68000000  1.0 0.0225437286
C  C103  1  0.66200000  0.69600000  0.18000000  1.0 0.0225437286
C  C104  1  0.30400000  0.96600000  0.18000000  1.0 0.0225437286
C  C105  1  0.33800000  0.03400000  0.82000000  1.0 0.0225437286
C  C106  1  0.69600000  0.03400000  0.68000000  1.0 0.0225437286
C  C107  1  0.33800000  0.30400000  0.68000000  1.0 0.0225437286
C  C108  1  0.03400000  0.33800000  0.18000000  1.0 0.0225437286
C  C109  1  0.25500000  0.96900000  0.70900000  1.0 0.0225437286
C  C110  1  0.03100000  0.28600000  0.70900000  1.0 0.0225437286
C  C111  1  0.71400000  0.74500000  0.70900000  1.0 0.0225437286
C  C112  1  0.28600000  0.25500000  0.20900000  1.0 0.0225437286
C  C113  1  0.96900000  0.71400000  0.20900000  1.0 0.0225437286
C  C114  1  0.96900000  0.25500000  0.29100000  1.0 0.0225437286
C  C115  1  0.25500000  0.28600000  0.79100000  1.0 0.0225437286
C  C116  1  0.71400000  0.96900000  0.79100000  1.0 0.0225437286
C  C117  1  0.74500000  0.03100000  0.20900000  1.0 0.0225437286
C  C118  1  0.28600000  0.03100000  0.29100000  1.0 0.0225437286
C  C119  1  0.74500000  0.71400000  0.29100000  1.0 0.0225437286
C  C120  1  0.03100000  0.74500000  0.79100000  1.0 0.0225437286
C  C121  1  0.74500000  0.03100000  0.29100000  1.0 0.0225437286
C  C122  1  0.96900000  0.71400000  0.29100000  1.0 0.0225437286
C  C123  1  0.28600000  0.25500000  0.29100000  1.0 0.0225437286
C  C124  1  0.71400000  0.74500000  0.79100000  1.0 0.0225437286
C  C125  1  0.03100000  0.28600000  0.79100000  1.0 0.0225437286
C  C126  1  0.03100000  0.74500000  0.70900000  1.0 0.0225437286
C  C127  1  0.74500000  0.71400000  0.20900000  1.0 0.0225437286
C  C128  1  0.28600000  0.03100000  0.20900000  1.0 0.0225437286
C  C129  1  0.25500000  0.96900000  0.79100000  1.0 0.0225437286
C  C130  1  0.71400000  0.96900000  0.70900000  1.0 0.0225437286
C  C131  1  0.25500000  0.28600000  0.70900000  1.0 0.0225437286
C  C132  1  0.96900000  0.25500000  0.20900000  1.0 0.0225437286
N  N1  1  0.51380000  0.17890000  0.75000000  1.0 -0.2371447461
N  N2  1  0.82110000  0.33490000  0.75000000  1.0 -0.2314046072
N  N3  1  0.66510000  0.48620000  0.75000000  1.0 -0.2314046072
N  N4  1  0.33490000  0.51380000  0.25000000  1.0 -0.2314046072
N  N5  1  0.17890000  0.66510000  0.25000000  1.0 -0.2314046072
N  N6  1  0.17890000  0.51380000  0.25000000  1.0 -0.2314046072
N  N7  1  0.51380000  0.33490000  0.75000000  1.0 -0.2314046072
N  N8  1  0.66510000  0.17890000  0.75000000  1.0 -0.2371447461
N  N9  1  0.48620000  0.82110000  0.25000000  1.0 -0.2314046072
N  N10  1  0.33490000  0.82110000  0.25000000  1.0 -0.2314046072
N  N11  1  0.48620000  0.66510000  0.25000000  1.0 -0.2314046072
N  N12  1  0.82110000  0.48620000  0.75000000  1.0 -0.2314046072
N  N13  1  0.31100000  0.02940000  0.75000000  1.0 -0.0774668786
N  N14  1  0.97060000  0.28160000  0.75000000  1.0 -0.0774668786
N  N15  1  0.71840000  0.68900000  0.75000000  1.0 -0.0774668786
N  N16  1  0.28160000  0.31100000  0.25000000  1.0 -0.0774668786
N  N17  1  0.02940000  0.71840000  0.25000000  1.0 -0.0774668786
N  N18  1  0.02940000  0.31100000  0.25000000  1.0 -0.0774668786
N  N19  1  0.31100000  0.28160000  0.75000000  1.0 -0.0774668786
N  N20  1  0.71840000  0.02940000  0.75000000  1.0 -0.0774668786
N  N21  1  0.68900000  0.97060000  0.25000000  1.0 -0.0774668786
N  N22  1  0.28160000  0.97060000  0.25000000  1.0 -0.0774668786
N  N23  1  0.68900000  0.71840000  0.25000000  1.0 -0.0774668786
N  N24  1  0.97060000  0.68900000  0.75000000  1.0 -0.0774668786
O  O1  1  0.36160000  0.12320000  0.75000000  1.0 -0.0528547834
O  O2  1  0.87680000  0.23840000  0.75000000  1.0 -0.0528547834
O  O3  1  0.76160000  0.63840000  0.75000000  1.0 -0.0528547834
O  O4  1  0.23840000  0.36160000  0.25000000  1.0 -0.0528547834
O  O5  1  0.12320000  0.76160000  0.25000000  1.0 -0.0528547834
O  O6  1  0.12320000  0.36160000  0.25000000  1.0 -0.0528547834
O  O7  1  0.36160000  0.23840000  0.75000000  1.0 -0.0528547834
O  O8  1  0.76160000  0.12320000  0.75000000  1.0 -0.0528547834
O  O9  1  0.63840000  0.87680000  0.25000000  1.0 -0.0528547834
O  O10  1  0.23840000  0.87680000  0.25000000  1.0 -0.0528547834
O  O11  1  0.63840000  0.76160000  0.25000000  1.0 -0.0528547834
O  O12  1  0.87680000  0.63840000  0.75000000  1.0 -0.0528547834
