# DDEC6 charges by PACMAN v1.1 (https://github.com/mtap-research/PACMAN-charge/)
data_XEKJUT_FSR_pacman
_symmetry_space_group_name_H-M   'P 1'
_cell_length_a   18.42100000
_cell_length_b   18.42100000
_cell_length_c   8.53700000
_cell_angle_alpha   90.00000000
_cell_angle_beta   90.00000000
_cell_angle_gamma   120.00000000
_symmetry_Int_Tables_number   1
_chemical_formula_structural   CuC22(N2O)2
_chemical_formula_sum   'Cu6 C132 N24 O12'
_cell_volume   2508.77849462
_cell_formula_units_Z   6
loop_
 _symmetry_equiv_pos_site_id
 _symmetry_equiv_pos_as_xyz
  1  'x, y, z'
loop_
 _atom_site_type_symbol
 _atom_site_label
 _atom_site_symmetry_multiplicity
 _atom_site_fract_x
 _atom_site_fract_y
 _atom_site_fract_z
 _atom_site_occupancy
 _atom_site_charge
Cu  Cu1  1  0.53885000  0.07769000  0.25000000  1.0 0.2864073396
Cu  Cu2  1  0.92231000  0.46116000  0.25000000  1.0 0.2864073396
Cu  Cu3  1  0.53885000  0.46116000  0.25000000  1.0 0.2864073396
Cu  Cu4  1  0.46115000  0.53885000  0.75000000  1.0 0.2864073396
Cu  Cu5  1  0.07769000  0.53885000  0.75000000  1.0 0.2864073396
Cu  Cu6  1  0.46116000  0.92231000  0.75000000  1.0 0.2864073396
C  C1  1  0.50975000  0.01950000  0.05740000  1.0 -0.097272172
C  C2  1  0.98050000  0.49025000  0.05740000  1.0 -0.097272172
C  C3  1  0.50975000  0.49025000  0.05740000  1.0 -0.097272172
C  C4  1  0.49025000  0.50975000  0.55740000  1.0 -0.097272172
C  C5  1  0.01950000  0.50975000  0.55740000  1.0 -0.097272172
C  C6  1  0.01950000  0.50975000  0.94260000  1.0 -0.097272172
C  C7  1  0.50975000  0.49025000  0.44260000  1.0 -0.0927346866
C  C8  1  0.50975000  0.01950000  0.44260000  1.0 -0.097272172
C  C9  1  0.49025000  0.98050000  0.55740000  1.0 -0.097272172
C  C10  1  0.49025000  0.98050000  0.94260000  1.0 -0.097272172
C  C11  1  0.49025000  0.50975000  0.94260000  1.0 -0.1070880276
C  C12  1  0.98050000  0.49025000  0.44260000  1.0 -0.097272172
C  C13  1  0.58940000  0.25720000  0.25000000  1.0 0.0869759513
C  C14  1  0.74280000  0.33220000  0.25000000  1.0 0.0869759513
C  C15  1  0.66780000  0.41060000  0.25000000  1.0 0.0869759513
C  C16  1  0.33220000  0.58940000  0.75000000  1.0 0.0839937298
C  C17  1  0.25720000  0.66780000  0.75000000  1.0 0.0839937298
C  C18  1  0.25720000  0.58940000  0.75000000  1.0 0.0839937298
C  C19  1  0.58940000  0.33220000  0.25000000  1.0 0.0869759513
C  C20  1  0.66780000  0.25720000  0.25000000  1.0 0.0869759513
C  C21  1  0.41060000  0.74280000  0.75000000  1.0 0.0839937298
C  C22  1  0.33220000  0.74280000  0.75000000  1.0 0.0839937298
C  C23  1  0.41060000  0.66780000  0.75000000  1.0 0.0839937298
C  C24  1  0.74280000  0.41060000  0.25000000  1.0 0.0869759513
C  C25  1  0.44780000  0.18550000  0.25000000  1.0 0.0869759513
C  C26  1  0.81450000  0.26230000  0.25000000  1.0 0.0839937298
C  C27  1  0.73770000  0.55220000  0.25000000  1.0 0.0839937298
C  C28  1  0.26230000  0.44780000  0.75000000  1.0 0.0869759513
C  C29  1  0.18550000  0.73770000  0.75000000  1.0 0.0869759513
C  C30  1  0.18550000  0.44780000  0.75000000  1.0 0.0869759513
C  C31  1  0.44780000  0.26230000  0.25000000  1.0 0.0869759513
C  C32  1  0.73770000  0.18550000  0.25000000  1.0 0.0869759513
C  C33  1  0.55220000  0.81450000  0.75000000  1.0 0.0839937298
C  C34  1  0.26230000  0.81450000  0.75000000  1.0 0.0839937298
C  C35  1  0.55220000  0.73770000  0.75000000  1.0 0.0839937298
C  C36  1  0.81450000  0.55220000  0.25000000  1.0 0.0839937298
C  C37  1  0.37500000  0.09510000  0.25000000  1.0 0.0381462475
C  C38  1  0.90490000  0.27990000  0.25000000  1.0 0.0381462475
C  C39  1  0.72010000  0.62500000  0.25000000  1.0 0.0381462475
C  C40  1  0.27990000  0.37500000  0.75000000  1.0 0.0381462475
C  C41  1  0.09510000  0.72010000  0.75000000  1.0 0.0381462475
C  C42  1  0.09510000  0.37500000  0.75000000  1.0 0.0381462475
C  C43  1  0.37500000  0.27990000  0.25000000  1.0 0.0381462475
C  C44  1  0.72010000  0.09510000  0.25000000  1.0 0.0381462475
C  C45  1  0.62500000  0.90490000  0.75000000  1.0 0.0381462475
C  C46  1  0.27990000  0.90490000  0.75000000  1.0 0.0381462475
C  C47  1  0.62500000  0.72010000  0.75000000  1.0 0.0381462475
C  C48  1  0.90490000  0.62500000  0.25000000  1.0 0.0381462475
C  C49  1  0.25700000  0.98900000  0.25000000  1.0 -0.0026599287
C  C50  1  0.01100000  0.26800000  0.25000000  1.0 -0.0026599287
C  C51  1  0.73200000  0.74300000  0.25000000  1.0 -0.0026599287
C  C52  1  0.26800000  0.25700000  0.75000000  1.0 -0.0026599287
C  C53  1  0.98900000  0.73200000  0.75000000  1.0 -0.0026599287
C  C54  1  0.98900000  0.25700000  0.75000000  1.0 -0.0026599287
C  C55  1  0.25700000  0.26800000  0.25000000  1.0 -0.0026599287
C  C56  1  0.73200000  0.98900000  0.25000000  1.0 -0.0026599287
C  C57  1  0.74300000  0.01100000  0.75000000  1.0 -0.0026599287
C  C58  1  0.26800000  0.01100000  0.75000000  1.0 -0.0026599287
C  C59  1  0.74300000  0.73200000  0.75000000  1.0 -0.0026599287
C  C60  1  0.01100000  0.74300000  0.25000000  1.0 -0.0026599287
C  C61  1  0.35460000  0.03990000  0.29000000  1.0 0.0465129984
C  C62  1  0.96010000  0.31470000  0.29000000  1.0 0.0465129984
C  C63  1  0.68530000  0.64540000  0.29000000  1.0 0.0465129984
C  C64  1  0.31470000  0.35460000  0.79000000  1.0 0.0465129984
C  C65  1  0.03990000  0.68530000  0.79000000  1.0 0.0381462475
C  C66  1  0.03990000  0.35460000  0.71000000  1.0 0.0465129984
C  C67  1  0.35460000  0.31470000  0.21000000  1.0 0.0465129984
C  C68  1  0.68530000  0.03990000  0.21000000  1.0 0.0465129984
C  C69  1  0.64540000  0.96010000  0.79000000  1.0 0.0465129984
C  C70  1  0.31470000  0.96010000  0.71000000  1.0 0.0465129984
C  C71  1  0.64540000  0.68530000  0.71000000  1.0 0.0465129984
C  C72  1  0.96010000  0.64540000  0.21000000  1.0 0.0465129984
C  C73  1  0.64540000  0.96010000  0.71000000  1.0 0.0465129984
C  C74  1  0.03990000  0.68530000  0.71000000  1.0 0.0465129984
C  C75  1  0.31470000  0.35460000  0.71000000  1.0 0.0465129984
C  C76  1  0.68530000  0.64540000  0.21000000  1.0 0.0465129984
C  C77  1  0.96010000  0.31470000  0.21000000  1.0 0.0465129984
C  C78  1  0.96010000  0.64540000  0.29000000  1.0 0.0465129984
C  C79  1  0.64540000  0.68530000  0.79000000  1.0 0.0465129984
C  C80  1  0.31470000  0.96010000  0.79000000  1.0 0.0465129984
C  C81  1  0.35460000  0.03990000  0.21000000  1.0 0.0465129984
C  C82  1  0.68530000  0.03990000  0.29000000  1.0 0.0465129984
C  C83  1  0.35460000  0.31470000  0.29000000  1.0 0.0465129984
C  C84  1  0.03990000  0.35460000  0.79000000  1.0 0.0465129984
C  C85  1  0.25700000  0.99400000  0.33900000  1.0 0.0085673974
C  C86  1  0.00600000  0.26300000  0.33900000  1.0 0.0085673974
C  C87  1  0.73700000  0.74300000  0.33900000  1.0 0.0085673974
C  C88  1  0.26300000  0.25700000  0.83900000  1.0 0.0085673974
C  C89  1  0.99400000  0.73700000  0.83900000  1.0 0.0085673974
C  C90  1  0.99400000  0.25700000  0.66100000  1.0 0.0085673974
C  C91  1  0.25700000  0.26300000  0.16100000  1.0 0.0085673974
C  C92  1  0.73700000  0.99400000  0.16100000  1.0 0.0085673974
C  C93  1  0.74300000  0.00600000  0.83900000  1.0 0.0085673974
C  C94  1  0.26300000  0.00600000  0.66100000  1.0 0.0085673974
C  C95  1  0.74300000  0.73700000  0.66100000  1.0 0.0085673974
C  C96  1  0.00600000  0.74300000  0.16100000  1.0 0.0085673974
C  C97  1  0.74300000  0.00600000  0.66100000  1.0 0.0085673974
C  C98  1  0.99400000  0.73700000  0.66100000  1.0 0.0085673974
C  C99  1  0.26300000  0.25700000  0.66100000  1.0 0.0085673974
C  C100  1  0.73700000  0.74300000  0.16100000  1.0 0.0085673974
C  C101  1  0.00600000  0.26300000  0.16100000  1.0 0.0085673974
C  C102  1  0.00600000  0.74300000  0.33900000  1.0 0.0085673974
C  C103  1  0.74300000  0.73700000  0.83900000  1.0 0.0085673974
C  C104  1  0.26300000  0.00600000  0.83900000  1.0 0.0085673974
C  C105  1  0.25700000  0.99400000  0.16100000  1.0 0.0085673974
C  C106  1  0.73700000  0.99400000  0.33900000  1.0 0.0085673974
C  C107  1  0.25700000  0.26300000  0.33900000  1.0 0.0085673974
C  C108  1  0.99400000  0.25700000  0.83900000  1.0 0.0085673974
C  C109  1  0.32200000  0.03900000  0.33300000  1.0 -0.0417034405
C  C110  1  0.96100000  0.28300000  0.33300000  1.0 -0.0417034405
C  C111  1  0.71700000  0.67800000  0.33300000  1.0 -0.0417034405
C  C112  1  0.28300000  0.32200000  0.83300000  1.0 -0.0417034405
C  C113  1  0.03900000  0.71700000  0.83300000  1.0 -0.0452970322
C  C114  1  0.03900000  0.32200000  0.66700000  1.0 -0.0417034405
C  C115  1  0.32200000  0.28300000  0.16700000  1.0 -0.0417034405
C  C116  1  0.71700000  0.03900000  0.16700000  1.0 -0.0417034405
C  C117  1  0.67800000  0.96100000  0.83300000  1.0 -0.0417034405
C  C118  1  0.28300000  0.96100000  0.66700000  1.0 -0.0417034405
C  C119  1  0.67800000  0.71700000  0.66700000  1.0 -0.0417034405
C  C120  1  0.96100000  0.67800000  0.16700000  1.0 -0.0417034405
C  C121  1  0.67800000  0.96100000  0.66700000  1.0 -0.0417034405
C  C122  1  0.03900000  0.71700000  0.66700000  1.0 -0.0417034405
C  C123  1  0.28300000  0.32200000  0.66700000  1.0 -0.0417034405
C  C124  1  0.71700000  0.67800000  0.16700000  1.0 -0.0417034405
C  C125  1  0.96100000  0.28300000  0.16700000  1.0 -0.0417034405
C  C126  1  0.96100000  0.67800000  0.33300000  1.0 -0.0417034405
C  C127  1  0.67800000  0.71700000  0.83300000  1.0 -0.0417034405
C  C128  1  0.28300000  0.96100000  0.83300000  1.0 -0.0417034405
C  C129  1  0.32200000  0.03900000  0.16700000  1.0 -0.0417034405
C  C130  1  0.71700000  0.03900000  0.33300000  1.0 -0.0417034405
C  C131  1  0.32200000  0.28300000  0.33300000  1.0 -0.0452970322
C  C132  1  0.03900000  0.32200000  0.83300000  1.0 -0.0452970322
N  N1  1  0.51740000  0.18200000  0.25000000  1.0 -0.2497918312
N  N2  1  0.81800000  0.33540000  0.25000000  1.0 -0.2497918312
N  N3  1  0.66460000  0.48260000  0.25000000  1.0 -0.2497918312
N  N4  1  0.33540000  0.51740000  0.75000000  1.0 -0.2448707242
N  N5  1  0.18200000  0.66460000  0.75000000  1.0 -0.2497918312
N  N6  1  0.18200000  0.51740000  0.75000000  1.0 -0.2497918312
N  N7  1  0.51740000  0.33540000  0.25000000  1.0 -0.2497918312
N  N8  1  0.66460000  0.18200000  0.25000000  1.0 -0.2497918312
N  N9  1  0.48260000  0.81800000  0.75000000  1.0 -0.2497918312
N  N10  1  0.33540000  0.81800000  0.75000000  1.0 -0.2497918312
N  N11  1  0.48260000  0.66460000  0.75000000  1.0 -0.2448707242
N  N12  1  0.81800000  0.48260000  0.25000000  1.0 -0.2497918312
N  N13  1  0.32140000  0.03520000  0.25000000  1.0 -0.0188075565
N  N14  1  0.96480000  0.28620000  0.25000000  1.0 -0.0188075565
N  N15  1  0.71380000  0.67860000  0.25000000  1.0 -0.0188075565
N  N16  1  0.28620000  0.32140000  0.75000000  1.0 -0.0188075565
N  N17  1  0.03520000  0.71380000  0.75000000  1.0 -0.0188075565
N  N18  1  0.03520000  0.32140000  0.75000000  1.0 -0.0188075565
N  N19  1  0.32140000  0.28620000  0.25000000  1.0 -0.0188075565
N  N20  1  0.71380000  0.03520000  0.25000000  1.0 -0.0188075565
N  N21  1  0.67860000  0.96480000  0.75000000  1.0 -0.0188075565
N  N22  1  0.28620000  0.96480000  0.75000000  1.0 -0.0188075565
N  N23  1  0.67860000  0.71380000  0.75000000  1.0 -0.0188075565
N  N24  1  0.96480000  0.67860000  0.25000000  1.0 -0.0188075565
O  O1  1  0.36830000  0.12770000  0.25000000  1.0 -0.0093267138
O  O2  1  0.87230000  0.24060000  0.25000000  1.0 -0.0093267138
O  O3  1  0.75940000  0.63170000  0.25000000  1.0 -0.0093267138
O  O4  1  0.24060000  0.36830000  0.75000000  1.0 -0.0093267138
O  O5  1  0.12770000  0.75940000  0.75000000  1.0 -0.0093267138
O  O6  1  0.12770000  0.36830000  0.75000000  1.0 -0.0093267138
O  O7  1  0.36830000  0.24060000  0.25000000  1.0 -0.0093267138
O  O8  1  0.75940000  0.12770000  0.25000000  1.0 -0.0093267138
O  O9  1  0.63170000  0.87230000  0.75000000  1.0 -0.0093267138
O  O10  1  0.24060000  0.87230000  0.75000000  1.0 -0.0093267138
O  O11  1  0.63170000  0.75940000  0.75000000  1.0 -0.0093267138
O  O12  1  0.87230000  0.63170000  0.25000000  1.0 -0.0093267138
