# DDEC6 charges by PACMAN v1.1 (https://github.com/mtap-research/PACMAN-charge/)
data_XEKYOF_ASR_pacman
_symmetry_space_group_name_H-M   'P 1'
_cell_length_a   15.38520000
_cell_length_b   15.38520000
_cell_length_c   15.38520000
_cell_angle_alpha   60.00000000
_cell_angle_beta   60.00000000
_cell_angle_gamma   60.00000000
_symmetry_Int_Tables_number   1
_chemical_formula_structural   Eu3H12C24(N3O4)4
_chemical_formula_sum   'Eu6 H24 C48 N24 O32'
_cell_volume   2575.10202794
_cell_formula_units_Z   2
loop_
 _symmetry_equiv_pos_site_id
 _symmetry_equiv_pos_as_xyz
  1  'x, y, z'
loop_
 _atom_site_type_symbol
 _atom_site_label
 _atom_site_symmetry_multiplicity
 _atom_site_fract_x
 _atom_site_fract_y
 _atom_site_fract_z
 _atom_site_occupancy
 _atom_site_charge
Eu  Eu1  1  0.87031000  0.87031000  0.12969000  1.0 2.2389473018
Eu  Eu2  1  0.12969000  0.12969000  0.87031000  1.0 2.2389473018
Eu  Eu3  1  0.87031000  0.12969000  0.87031000  1.0 2.2389473018
Eu  Eu4  1  0.12969000  0.87031000  0.12969000  1.0 2.2389473018
Eu  Eu5  1  0.12969000  0.87031000  0.87031000  1.0 2.2389473018
Eu  Eu6  1  0.87031000  0.12969000  0.12969000  1.0 2.2389473018
H  H1  1  0.86480000  0.57600000  0.13520000  1.0 0.1898807259
H  H2  1  0.13520000  0.42400000  0.86480000  1.0 0.1898807259
H  H3  1  0.57600000  0.86480000  0.42400000  1.0 0.1898807259
H  H4  1  0.42400000  0.13520000  0.57600000  1.0 0.1898807259
H  H5  1  0.57600000  0.13520000  0.86480000  1.0 0.1898807259
H  H6  1  0.42400000  0.86480000  0.13520000  1.0 0.1898807259
H  H7  1  0.86480000  0.42400000  0.57600000  1.0 0.1898807259
H  H8  1  0.13520000  0.57600000  0.42400000  1.0 0.1898807259
H  H9  1  0.13520000  0.86480000  0.57600000  1.0 0.1898807259
H  H10  1  0.86480000  0.13520000  0.42400000  1.0 0.1898807259
H  H11  1  0.42400000  0.57600000  0.86480000  1.0 0.1898807259
H  H12  1  0.57600000  0.42400000  0.13520000  1.0 0.1898807259
H  H13  1  0.13520000  0.57600000  0.86480000  1.0 0.1898807259
H  H14  1  0.86480000  0.42400000  0.13520000  1.0 0.1898807259
H  H15  1  0.42400000  0.86480000  0.57600000  1.0 0.1898807259
H  H16  1  0.57600000  0.13520000  0.42400000  1.0 0.1898807259
H  H17  1  0.42400000  0.57600000  0.13520000  1.0 0.1898807259
H  H18  1  0.57600000  0.42400000  0.86480000  1.0 0.1898807259
H  H19  1  0.13520000  0.86480000  0.42400000  1.0 0.1898807259
H  H20  1  0.86480000  0.13520000  0.57600000  1.0 0.1898807259
H  H21  1  0.86480000  0.57600000  0.42400000  1.0 0.1898807259
H  H22  1  0.13520000  0.42400000  0.57600000  1.0 0.1898807259
H  H23  1  0.57600000  0.86480000  0.13520000  1.0 0.1898807259
H  H24  1  0.42400000  0.13520000  0.86480000  1.0 0.1898807259
C  C1  1  0.91750000  0.54590000  0.08250000  1.0 0.0497658945
C  C2  1  0.08250000  0.45410000  0.91750000  1.0 0.0497658945
C  C3  1  0.54590000  0.91750000  0.45410000  1.0 0.0497658945
C  C4  1  0.45410000  0.08250000  0.54590000  1.0 0.0497658945
C  C5  1  0.54590000  0.08250000  0.91750000  1.0 0.0497658945
C  C6  1  0.45410000  0.91750000  0.08250000  1.0 0.0497658945
C  C7  1  0.91750000  0.45410000  0.54590000  1.0 0.0497658945
C  C8  1  0.08250000  0.54590000  0.45410000  1.0 0.0497658945
C  C9  1  0.08250000  0.91750000  0.54590000  1.0 0.0497658945
C  C10  1  0.91750000  0.08250000  0.45410000  1.0 0.0497658945
C  C11  1  0.45410000  0.54590000  0.91750000  1.0 0.0497658945
C  C12  1  0.54590000  0.45410000  0.08250000  1.0 0.0497658945
C  C13  1  0.08250000  0.54590000  0.91750000  1.0 0.0497658945
C  C14  1  0.91750000  0.45410000  0.08250000  1.0 0.0497658945
C  C15  1  0.45410000  0.91750000  0.54590000  1.0 0.0497658945
C  C16  1  0.54590000  0.08250000  0.45410000  1.0 0.0497658945
C  C17  1  0.45410000  0.54590000  0.08250000  1.0 0.0497658945
C  C18  1  0.54590000  0.45410000  0.91750000  1.0 0.0497658945
C  C19  1  0.08250000  0.91750000  0.45410000  1.0 0.0497658945
C  C20  1  0.91750000  0.08250000  0.54590000  1.0 0.0497658945
C  C21  1  0.91750000  0.54590000  0.45410000  1.0 0.0497658945
C  C22  1  0.08250000  0.45410000  0.54590000  1.0 0.0497658945
C  C23  1  0.54590000  0.91750000  0.08250000  1.0 0.0497658945
C  C24  1  0.45410000  0.08250000  0.91750000  1.0 0.0497658945
C  C25  1  0.00000000  0.68960000  0.00000000  1.0 0.6427730567
C  C26  1  0.00000000  0.59220000  0.00000000  1.0 0.0120507816
C  C27  1  0.00000000  0.31040000  0.00000000  1.0 0.6427730567
C  C28  1  0.00000000  0.40780000  0.00000000  1.0 0.0120507816
C  C29  1  0.68960000  0.00000000  0.31040000  1.0 0.6427730567
C  C30  1  0.59220000  0.00000000  0.40780000  1.0 0.0120507816
C  C31  1  0.31040000  0.00000000  0.68960000  1.0 0.6427730567
C  C32  1  0.40780000  0.00000000  0.59220000  1.0 0.0120507816
C  C33  1  0.68960000  0.00000000  0.00000000  1.0 0.6427730567
C  C34  1  0.59220000  0.00000000  0.00000000  1.0 0.0120507816
C  C35  1  0.31040000  0.00000000  0.00000000  1.0 0.6427730567
C  C36  1  0.40780000  0.00000000  0.00000000  1.0 0.0120507816
C  C37  1  0.00000000  0.31040000  0.68960000  1.0 0.6427730567
C  C38  1  0.00000000  0.40780000  0.59220000  1.0 0.0120507816
C  C39  1  0.00000000  0.68960000  0.31040000  1.0 0.6427730567
C  C40  1  0.00000000  0.59220000  0.40780000  1.0 0.0120507816
C  C41  1  0.00000000  0.00000000  0.68960000  1.0 0.6427730567
C  C42  1  0.00000000  0.00000000  0.59220000  1.0 0.0120507816
C  C43  1  0.00000000  0.00000000  0.31040000  1.0 0.6427730567
C  C44  1  0.00000000  0.00000000  0.40780000  1.0 0.0120507816
C  C45  1  0.31040000  0.68960000  0.00000000  1.0 0.6427730567
C  C46  1  0.40780000  0.59220000  0.00000000  1.0 0.0120507816
C  C47  1  0.68960000  0.31040000  0.00000000  1.0 0.6427730567
C  C48  1  0.59220000  0.40780000  0.00000000  1.0 0.0120507816
N  N1  1  0.82400000  0.59000000  0.17600000  1.0 -0.2457785175
N  N2  1  0.17600000  0.41000000  0.82400000  1.0 -0.2457785175
N  N3  1  0.59000000  0.82400000  0.41000000  1.0 -0.2457785175
N  N4  1  0.41000000  0.17600000  0.59000000  1.0 -0.2457785175
N  N5  1  0.59000000  0.17600000  0.82400000  1.0 -0.2457785175
N  N6  1  0.41000000  0.82400000  0.17600000  1.0 -0.2457785175
N  N7  1  0.82400000  0.41000000  0.59000000  1.0 -0.2457785175
N  N8  1  0.17600000  0.59000000  0.41000000  1.0 -0.2457785175
N  N9  1  0.17600000  0.82400000  0.59000000  1.0 -0.2457785175
N  N10  1  0.82400000  0.17600000  0.41000000  1.0 -0.2457785175
N  N11  1  0.41000000  0.59000000  0.82400000  1.0 -0.2457785175
N  N12  1  0.59000000  0.41000000  0.17600000  1.0 -0.2457785175
N  N13  1  0.17600000  0.59000000  0.82400000  1.0 -0.2457785175
N  N14  1  0.82400000  0.41000000  0.17600000  1.0 -0.2457785175
N  N15  1  0.41000000  0.82400000  0.59000000  1.0 -0.2457785175
N  N16  1  0.59000000  0.17600000  0.41000000  1.0 -0.2457785175
N  N17  1  0.41000000  0.59000000  0.17600000  1.0 -0.2457785175
N  N18  1  0.59000000  0.41000000  0.82400000  1.0 -0.2457785175
N  N19  1  0.17600000  0.82400000  0.41000000  1.0 -0.2457785175
N  N20  1  0.82400000  0.17600000  0.59000000  1.0 -0.2457785175
N  N21  1  0.82400000  0.59000000  0.41000000  1.0 -0.2457785175
N  N22  1  0.17600000  0.41000000  0.59000000  1.0 -0.2457785175
N  N23  1  0.59000000  0.82400000  0.17600000  1.0 -0.2457785175
N  N24  1  0.41000000  0.17600000  0.82400000  1.0 -0.2457785175
O  O1  1  0.94059000  0.94059000  0.94059000  1.0 -0.9140982979
O  O2  1  0.94059000  0.17823000  0.94059000  1.0 -0.9164689683
O  O3  1  0.94059000  0.94059000  0.17823000  1.0 -0.9140982979
O  O4  1  0.17823000  0.94059000  0.94059000  1.0 -0.9140982979
O  O5  1  0.05941000  0.82177000  0.05941000  1.0 -0.9140982979
O  O6  1  0.05941000  0.05941000  0.05941000  1.0 -0.9164689683
O  O7  1  0.05941000  0.05941000  0.82177000  1.0 -0.9164689683
O  O8  1  0.82177000  0.05941000  0.05941000  1.0 -0.9164689683
O  O9  1  0.92400000  0.72560000  0.07600000  1.0 -0.5759223032
O  O10  1  0.07600000  0.27440000  0.92400000  1.0 -0.5759223032
O  O11  1  0.72560000  0.92400000  0.27440000  1.0 -0.5759223032
O  O12  1  0.27440000  0.07600000  0.72560000  1.0 -0.5759223032
O  O13  1  0.72560000  0.07600000  0.92400000  1.0 -0.5759223032
O  O14  1  0.27440000  0.92400000  0.07600000  1.0 -0.5759223032
O  O15  1  0.92400000  0.27440000  0.72560000  1.0 -0.5759223032
O  O16  1  0.07600000  0.72560000  0.27440000  1.0 -0.5759223032
O  O17  1  0.07600000  0.92400000  0.72560000  1.0 -0.5759223032
O  O18  1  0.92400000  0.07600000  0.27440000  1.0 -0.5759223032
O  O19  1  0.27440000  0.72560000  0.92400000  1.0 -0.5759223032
O  O20  1  0.72560000  0.27440000  0.07600000  1.0 -0.5759223032
O  O21  1  0.07600000  0.72560000  0.92400000  1.0 -0.5759223032
O  O22  1  0.92400000  0.27440000  0.07600000  1.0 -0.5759223032
O  O23  1  0.27440000  0.92400000  0.72560000  1.0 -0.5759223032
O  O24  1  0.72560000  0.07600000  0.27440000  1.0 -0.5759223032
O  O25  1  0.27440000  0.72560000  0.07600000  1.0 -0.5759223032
O  O26  1  0.72560000  0.27440000  0.92400000  1.0 -0.5759223032
O  O27  1  0.07600000  0.92400000  0.27440000  1.0 -0.5759223032
O  O28  1  0.92400000  0.07600000  0.72560000  1.0 -0.5759223032
O  O29  1  0.92400000  0.72560000  0.27440000  1.0 -0.5759223032
O  O30  1  0.07600000  0.27440000  0.72560000  1.0 -0.5759223032
O  O31  1  0.72560000  0.92400000  0.07600000  1.0 -0.5759223032
O  O32  1  0.27440000  0.07600000  0.92400000  1.0 -0.5759223032
