# DDEC6 charges by PACMAN v1.1 (https://github.com/mtap-research/PACMAN-charge/)
data_XEMHOM_ASR_pacman
_symmetry_space_group_name_H-M   'P 1'
_cell_length_a   10.34860000
_cell_length_b   12.03410000
_cell_length_c   20.77480000
_cell_angle_alpha   90.00000000
_cell_angle_beta   90.00000000
_cell_angle_gamma   90.00000000
_symmetry_Int_Tables_number   1
_chemical_formula_structural   Cs3H24C22(NO2)2
_chemical_formula_sum   'Cs12 H96 C88 N8 O16'
_cell_volume   2587.21230561
_cell_formula_units_Z   4
loop_
 _symmetry_equiv_pos_site_id
 _symmetry_equiv_pos_as_xyz
  1  'x, y, z'
loop_
 _atom_site_type_symbol
 _atom_site_label
 _atom_site_symmetry_multiplicity
 _atom_site_fract_x
 _atom_site_fract_y
 _atom_site_fract_z
 _atom_site_occupancy
 _atom_site_charge
Cs  Cs1  1  0.96634000  0.00000000  0.25000000  1.0 0.799698693
Cs  Cs2  1  0.03366000  0.00000000  0.75000000  1.0 0.799698693
Cs  Cs3  1  0.35131000  0.00000000  0.25000000  1.0 0.8333407466
Cs  Cs4  1  0.64869000  0.00000000  0.75000000  1.0 0.8333407466
Cs  Cs5  1  0.97218000  0.00000000  0.01411000  1.0 0.5021767144
Cs  Cs6  1  0.97218000  0.00000000  0.48589000  1.0 0.5021767144
Cs  Cs7  1  0.02782000  0.00000000  0.98589000  1.0 0.5057836298
Cs  Cs8  1  0.02782000  0.00000000  0.51411000  1.0 0.5057836298
Cs  Cs9  1  0.16530000  0.50000000  0.25000000  1.0 0.3087851379
Cs  Cs10  1  0.83470000  0.50000000  0.75000000  1.0 0.3087851379
Cs  Cs11  1  0.27550000  0.50000000  0.25000000  1.0 0.1814500217
Cs  Cs12  1  0.72450000  0.50000000  0.75000000  1.0 0.1814500217
H  H1  1  0.41450000  0.29010000  0.18840000  1.0 0.1297900974
H  H2  1  0.41450000  0.70990000  0.31160000  1.0 0.1297900974
H  H3  1  0.58550000  0.29010000  0.81160000  1.0 0.1297900974
H  H4  1  0.58550000  0.70990000  0.68840000  1.0 0.1297900974
H  H5  1  0.58550000  0.70990000  0.81160000  1.0 0.1297900974
H  H6  1  0.58550000  0.29010000  0.68840000  1.0 0.1297900974
H  H7  1  0.41450000  0.70990000  0.18840000  1.0 0.1297900974
H  H8  1  0.41450000  0.29010000  0.31160000  1.0 0.1297900974
H  H9  1  0.61910000  0.89540000  0.95120000  1.0 0.1196385623
H  H10  1  0.61910000  0.10460000  0.54880000  1.0 0.1196385623
H  H11  1  0.38090000  0.89540000  0.04880000  1.0 0.1196385623
H  H12  1  0.38090000  0.10460000  0.45120000  1.0 0.1196385623
H  H13  1  0.38090000  0.10460000  0.04880000  1.0 0.1196385623
H  H14  1  0.38090000  0.89540000  0.45120000  1.0 0.1196385623
H  H15  1  0.61910000  0.10460000  0.95120000  1.0 0.1196385623
H  H16  1  0.61910000  0.89540000  0.54880000  1.0 0.1196385623
H  H17  1  0.03430000  0.39510000  0.12730000  1.0 0.1196385623
H  H18  1  0.03430000  0.60490000  0.37270000  1.0 0.1196385623
H  H19  1  0.96570000  0.39510000  0.87270000  1.0 0.1196385623
H  H20  1  0.96570000  0.60490000  0.62730000  1.0 0.1196385623
H  H21  1  0.96570000  0.60490000  0.87270000  1.0 0.1196385623
H  H22  1  0.96570000  0.39510000  0.62730000  1.0 0.1196385623
H  H23  1  0.03430000  0.60490000  0.12730000  1.0 0.1196385623
H  H24  1  0.03430000  0.39510000  0.37270000  1.0 0.1196385623
H  H25  1  0.89150000  0.34510000  0.12100000  1.0 0.1297900974
H  H26  1  0.89150000  0.65490000  0.37900000  1.0 0.1297900974
H  H27  1  0.10850000  0.34510000  0.87900000  1.0 0.1297900974
H  H28  1  0.10850000  0.65490000  0.62100000  1.0 0.1297900974
H  H29  1  0.10850000  0.65490000  0.87900000  1.0 0.1297900974
H  H30  1  0.10850000  0.34510000  0.62100000  1.0 0.1297900974
H  H31  1  0.89150000  0.65490000  0.12100000  1.0 0.1297900974
H  H32  1  0.89150000  0.34510000  0.37900000  1.0 0.1297900974
H  H33  1  0.96630000  0.33870000  0.18830000  1.0 0.1112073933
H  H34  1  0.96630000  0.66130000  0.31170000  1.0 0.1112073933
H  H35  1  0.03370000  0.33870000  0.81170000  1.0 0.1112073933
H  H36  1  0.03370000  0.66130000  0.68830000  1.0 0.1112073933
H  H37  1  0.03370000  0.66130000  0.81170000  1.0 0.1112073933
H  H38  1  0.03370000  0.33870000  0.68830000  1.0 0.1112073933
H  H39  1  0.96630000  0.66130000  0.18830000  1.0 0.1112073933
H  H40  1  0.96630000  0.33870000  0.31170000  1.0 0.1112073933
H  H41  1  0.34250000  0.27820000  0.08310000  1.0 0.0858880117
H  H42  1  0.34250000  0.72180000  0.41690000  1.0 0.0858880117
H  H43  1  0.65750000  0.27820000  0.91690000  1.0 0.0858880117
H  H44  1  0.65750000  0.72180000  0.58310000  1.0 0.0858880117
H  H45  1  0.65750000  0.72180000  0.91690000  1.0 0.0858880117
H  H46  1  0.65750000  0.27820000  0.58310000  1.0 0.0858880117
H  H47  1  0.34250000  0.72180000  0.08310000  1.0 0.0858880117
H  H48  1  0.34250000  0.27820000  0.41690000  1.0 0.0858880117
H  H49  1  0.23860000  0.37050000  0.10250000  1.0 0.0858880117
H  H50  1  0.23860000  0.62950000  0.39750000  1.0 0.0858880117
H  H51  1  0.76140000  0.37050000  0.89750000  1.0 0.0858880117
H  H52  1  0.76140000  0.62950000  0.60250000  1.0 0.0858880117
H  H53  1  0.76140000  0.62950000  0.89750000  1.0 0.0858880117
H  H54  1  0.76140000  0.37050000  0.60250000  1.0 0.0858880117
H  H55  1  0.23860000  0.62950000  0.10250000  1.0 0.0858880117
H  H56  1  0.23860000  0.37050000  0.39750000  1.0 0.0858880117
H  H57  1  0.10940000  0.32250000  0.01190000  1.0 0.1297900974
H  H58  1  0.10940000  0.67750000  0.48810000  1.0 0.1297900974
H  H59  1  0.89060000  0.32250000  0.98810000  1.0 0.1297900974
H  H60  1  0.89060000  0.67750000  0.51190000  1.0 0.1297900974
H  H61  1  0.89060000  0.67750000  0.98810000  1.0 0.1297900974
H  H62  1  0.89060000  0.32250000  0.51190000  1.0 0.1297900974
H  H63  1  0.10940000  0.67750000  0.01190000  1.0 0.1297900974
H  H64  1  0.10940000  0.32250000  0.48810000  1.0 0.1297900974
H  H65  1  0.25230000  0.35200000  0.98790000  1.0 0.1379252497
H  H66  1  0.25230000  0.64800000  0.51210000  1.0 0.1379252497
H  H67  1  0.74770000  0.35200000  0.01210000  1.0 0.1379252497
H  H68  1  0.74770000  0.64800000  0.48790000  1.0 0.1379252497
H  H69  1  0.74770000  0.64800000  0.01210000  1.0 0.1379252497
H  H70  1  0.74770000  0.35200000  0.48790000  1.0 0.1379252497
H  H71  1  0.25230000  0.64800000  0.98790000  1.0 0.1379252497
H  H72  1  0.25230000  0.35200000  0.51210000  1.0 0.1379252497
H  H73  1  0.20770000  0.22500000  0.99340000  1.0 0.0991054189
H  H74  1  0.20770000  0.77500000  0.50660000  1.0 0.0991054189
H  H75  1  0.79230000  0.22500000  0.00660000  1.0 0.0991054189
H  H76  1  0.79230000  0.77500000  0.49340000  1.0 0.0991054189
H  H77  1  0.79230000  0.77500000  0.00660000  1.0 0.0991054189
H  H78  1  0.79230000  0.22500000  0.49340000  1.0 0.0991054189
H  H79  1  0.20770000  0.77500000  0.99340000  1.0 0.0991054189
H  H80  1  0.20770000  0.22500000  0.50660000  1.0 0.0991054189
H  H81  1  0.99050000  0.16700000  0.14940000  1.0 0.0705057351
H  H82  1  0.99050000  0.83300000  0.35060000  1.0 0.0705057351
H  H83  1  0.00950000  0.16700000  0.85060000  1.0 0.0705057351
H  H84  1  0.00950000  0.83300000  0.64940000  1.0 0.0705057351
H  H85  1  0.00950000  0.83300000  0.85060000  1.0 0.0705057351
H  H86  1  0.00950000  0.16700000  0.64940000  1.0 0.0705057351
H  H87  1  0.99050000  0.83300000  0.14940000  1.0 0.0705057351
H  H88  1  0.99050000  0.16700000  0.35060000  1.0 0.0705057351
H  H89  1  0.00680000  0.20980000  0.07720000  1.0 0.0705057351
H  H90  1  0.00680000  0.79020000  0.42280000  1.0 0.0705057351
H  H91  1  0.99320000  0.20980000  0.92280000  1.0 0.0705057351
H  H92  1  0.99320000  0.79020000  0.57720000  1.0 0.0705057351
H  H93  1  0.99320000  0.79020000  0.92280000  1.0 0.0705057351
H  H94  1  0.99320000  0.20980000  0.57720000  1.0 0.0705057351
H  H95  1  0.00680000  0.79020000  0.07720000  1.0 0.0705057351
H  H96  1  0.00680000  0.20980000  0.42280000  1.0 0.0705057351
C  C1  1  0.34520000  0.26890000  0.21570000  1.0 -0.3539145987
C  C2  1  0.34520000  0.73110000  0.28430000  1.0 -0.3539145987
C  C3  1  0.65480000  0.26890000  0.78430000  1.0 -0.3539145987
C  C4  1  0.65480000  0.73110000  0.71570000  1.0 -0.3539145987
C  C5  1  0.65480000  0.73110000  0.78430000  1.0 -0.3539145987
C  C6  1  0.65480000  0.26890000  0.71570000  1.0 -0.3539145987
C  C7  1  0.34520000  0.73110000  0.21570000  1.0 -0.3539145987
C  C8  1  0.34520000  0.26890000  0.28430000  1.0 -0.3539145987
C  C9  1  0.22570000  0.23240000  0.19700000  1.0 0.0991054189
C  C10  1  0.22570000  0.76760000  0.30300000  1.0 0.0991054189
C  C11  1  0.77430000  0.23240000  0.80300000  1.0 0.0991054189
C  C12  1  0.77430000  0.76760000  0.69700000  1.0 0.0991054189
C  C13  1  0.77430000  0.76760000  0.80300000  1.0 0.0991054189
C  C14  1  0.77430000  0.23240000  0.69700000  1.0 0.0991054189
C  C15  1  0.22570000  0.76760000  0.19700000  1.0 0.0991054189
C  C16  1  0.22570000  0.23240000  0.30300000  1.0 0.0991054189
C  C17  1  0.17890000  0.20970000  0.12760000  1.0 0.1196385623
C  C18  1  0.17890000  0.79030000  0.37240000  1.0 0.1196385623
C  C19  1  0.82110000  0.20970000  0.87240000  1.0 0.1196385623
C  C20  1  0.82110000  0.79030000  0.62760000  1.0 0.1196385623
C  C21  1  0.82110000  0.79030000  0.87240000  1.0 0.1196385623
C  C22  1  0.82110000  0.20970000  0.62760000  1.0 0.1196385623
C  C23  1  0.17890000  0.79030000  0.12760000  1.0 0.1196385623
C  C24  1  0.17890000  0.20970000  0.37240000  1.0 0.1196385623
C  C25  1  0.21810000  0.09060000  0.10850000  1.0 0.0597655394
C  C26  1  0.21810000  0.90940000  0.39150000  1.0 0.0597655394
C  C27  1  0.78190000  0.09060000  0.89150000  1.0 0.0597655394
C  C28  1  0.78190000  0.90940000  0.60850000  1.0 0.0597655394
C  C29  1  0.78190000  0.90940000  0.89150000  1.0 0.0597655394
C  C30  1  0.78190000  0.09060000  0.60850000  1.0 0.0597655394
C  C31  1  0.21810000  0.90940000  0.10850000  1.0 0.0597655394
C  C32  1  0.21810000  0.09060000  0.39150000  1.0 0.0597655394
C  C33  1  0.67850000  0.94250000  0.92940000  1.0 -0.3107685957
C  C34  1  0.67850000  0.05750000  0.57060000  1.0 -0.3107685957
C  C35  1  0.32150000  0.94250000  0.07060000  1.0 -0.3107685957
C  C36  1  0.32150000  0.05750000  0.42940000  1.0 -0.3107685957
C  C37  1  0.32150000  0.05750000  0.07060000  1.0 -0.3107685957
C  C38  1  0.32150000  0.94250000  0.42940000  1.0 -0.3107685957
C  C39  1  0.67850000  0.05750000  0.92940000  1.0 -0.3107685957
C  C40  1  0.67850000  0.94250000  0.57060000  1.0 -0.3107685957
C  C41  1  0.03200000  0.22470000  0.12240000  1.0 -0.2213956367
C  C42  1  0.03200000  0.77530000  0.37760000  1.0 -0.2213956367
C  C43  1  0.96800000  0.22470000  0.87760000  1.0 -0.2213956367
C  C44  1  0.96800000  0.77530000  0.62240000  1.0 -0.2213956367
C  C45  1  0.96800000  0.77530000  0.87760000  1.0 -0.2213956367
C  C46  1  0.96800000  0.22470000  0.62240000  1.0 -0.2213956367
C  C47  1  0.03200000  0.77530000  0.12240000  1.0 -0.2213956367
C  C48  1  0.03200000  0.22470000  0.37760000  1.0 -0.2213956367
C  C49  1  0.97610000  0.33560000  0.14140000  1.0 -0.4104469984
C  C50  1  0.97610000  0.66440000  0.35860000  1.0 -0.4104469984
C  C51  1  0.02390000  0.33560000  0.85860000  1.0 -0.4104469984
C  C52  1  0.02390000  0.66440000  0.64140000  1.0 -0.4104469984
C  C53  1  0.02390000  0.66440000  0.85860000  1.0 -0.4104469984
C  C54  1  0.02390000  0.33560000  0.64140000  1.0 -0.4104469984
C  C55  1  0.97610000  0.66440000  0.14140000  1.0 -0.4104469984
C  C56  1  0.97610000  0.33560000  0.35860000  1.0 -0.4104469984
C  C57  1  0.24900000  0.29560000  0.08340000  1.0 -0.1685523267
C  C58  1  0.24900000  0.70440000  0.41660000  1.0 -0.1685523267
C  C59  1  0.75100000  0.29560000  0.91660000  1.0 -0.1685523267
C  C60  1  0.75100000  0.70440000  0.58340000  1.0 -0.1685523267
C  C61  1  0.75100000  0.70440000  0.91660000  1.0 -0.1685523267
C  C62  1  0.75100000  0.29560000  0.58340000  1.0 -0.1685523267
C  C63  1  0.24900000  0.70440000  0.08340000  1.0 -0.1685523267
C  C64  1  0.24900000  0.29560000  0.41660000  1.0 -0.1685523267
C  C65  1  0.20000000  0.29910000  0.01260000  1.0 -0.4104469984
C  C66  1  0.20000000  0.70090000  0.48740000  1.0 -0.4104469984
C  C67  1  0.80000000  0.29910000  0.98740000  1.0 -0.4104469984
C  C68  1  0.80000000  0.70090000  0.51260000  1.0 -0.4104469984
C  C69  1  0.80000000  0.70090000  0.98740000  1.0 -0.4104469984
C  C70  1  0.80000000  0.29910000  0.51260000  1.0 -0.4104469984
C  C71  1  0.20000000  0.70090000  0.01260000  1.0 -0.4104469984
C  C72  1  0.20000000  0.29910000  0.48740000  1.0 -0.4104469984
C  C73  1  0.73500000  0.16500000  0.22750000  1.0 0.0292106049
C  C74  1  0.73500000  0.83500000  0.27250000  1.0 0.0292106049
C  C75  1  0.26500000  0.16500000  0.77250000  1.0 0.0292106049
C  C76  1  0.26500000  0.83500000  0.72750000  1.0 0.0292106049
C  C77  1  0.26500000  0.83500000  0.77250000  1.0 0.0292106049
C  C78  1  0.26500000  0.16500000  0.72750000  1.0 0.0292106049
C  C79  1  0.73500000  0.83500000  0.22750000  1.0 0.0292106049
C  C80  1  0.73500000  0.16500000  0.27250000  1.0 0.0292106049
C  C81  1  0.67300000  0.12900000  0.16400000  1.0 -0.0602505093
C  C82  1  0.67300000  0.87100000  0.33600000  1.0 -0.0602505093
C  C83  1  0.32700000  0.12900000  0.83600000  1.0 -0.0602505093
C  C84  1  0.32700000  0.87100000  0.66400000  1.0 -0.0602505093
C  C85  1  0.32700000  0.87100000  0.83600000  1.0 -0.0602505093
C  C86  1  0.32700000  0.12900000  0.66400000  1.0 -0.0602505093
C  C87  1  0.67300000  0.87100000  0.16400000  1.0 -0.0602505093
C  C88  1  0.67300000  0.12900000  0.33600000  1.0 -0.0602505093
N  N1  1  0.15120000  0.20860000  0.25000000  1.0 -0.4745509302
N  N2  1  0.15120000  0.79140000  0.25000000  1.0 -0.4745509302
N  N3  1  0.84880000  0.20860000  0.75000000  1.0 -0.4745509302
N  N4  1  0.84880000  0.79140000  0.75000000  1.0 -0.4757551725
N  N5  1  0.15360000  0.00000000  0.13110000  1.0 -0.5898680563
N  N6  1  0.15360000  0.00000000  0.36890000  1.0 -0.5898680563
N  N7  1  0.84640000  0.00000000  0.86890000  1.0 -0.5898680563
N  N8  1  0.84640000  0.00000000  0.63110000  1.0 -0.5898680563
O  O1  1  0.65300000  0.07800000  0.25000000  1.0 -0.0845957896
O  O2  1  0.65300000  0.92200000  0.25000000  1.0 -0.0845957896
O  O3  1  0.34700000  0.07800000  0.75000000  1.0 -0.0845957896
O  O4  1  0.34700000  0.92200000  0.75000000  1.0 -0.0853419329
O  O5  1  0.68200000  0.06400000  0.10700000  1.0 0.0705057351
O  O6  1  0.68200000  0.93600000  0.39300000  1.0 0.0705057351
O  O7  1  0.31800000  0.06400000  0.89300000  1.0 0.0705057351
O  O8  1  0.31800000  0.93600000  0.60700000  1.0 0.0705057351
O  O9  1  0.31800000  0.93600000  0.89300000  1.0 0.0705057351
O  O10  1  0.31800000  0.06400000  0.60700000  1.0 0.0705057351
O  O11  1  0.68200000  0.93600000  0.10700000  1.0 0.0705057351
O  O12  1  0.68200000  0.06400000  0.39300000  1.0 0.0705057351
O  O13  1  0.74800000  0.00000000  0.13600000  1.0 0.1196385623
O  O14  1  0.74800000  0.00000000  0.36400000  1.0 0.1196385623
O  O15  1  0.25200000  0.00000000  0.86400000  1.0 0.1196385623
O  O16  1  0.25200000  0.00000000  0.63600000  1.0 0.1196385623
