# DDEC6 charges by PACMAN v1.1 (https://github.com/mtap-research/PACMAN-charge/)
data_XEMHOP_FSR_pacman
_symmetry_space_group_name_H-M   'P 1'
_cell_length_a   8.84800000
_cell_length_b   12.02400000
_cell_length_c   12.29600000
_cell_angle_alpha   89.37600000
_cell_angle_beta   106.13200000
_cell_angle_gamma   111.30700000
_symmetry_Int_Tables_number   1
_chemical_formula_structural   Cu9H16(C14N11)2
_chemical_formula_sum   'Cu9 H16 C28 N22'
_cell_volume   1164.80193399
_cell_formula_units_Z   1
loop_
 _symmetry_equiv_pos_site_id
 _symmetry_equiv_pos_as_xyz
  1  'x, y, z'
loop_
 _atom_site_type_symbol
 _atom_site_label
 _atom_site_symmetry_multiplicity
 _atom_site_fract_x
 _atom_site_fract_y
 _atom_site_fract_z
 _atom_site_occupancy
 _atom_site_charge
Cu  Cu1  1  0.16023000  0.56581000  0.90352000  1.0 0.3963751321
Cu  Cu2  1  0.52819000  0.37269000  0.81503000  1.0 0.3854951537
Cu  Cu3  1  0.45248000  0.96654000  0.67163000  1.0 0.1954139149
Cu  Cu4  1  0.46159000  0.67255000  0.57633000  1.0 0.2201592675
Cu  Cu5  1  0.83977000  0.43419000  0.09648000  1.0 0.3963751321
Cu  Cu6  1  0.47181000  0.62731000  0.18497000  1.0 0.3854951537
Cu  Cu7  1  0.54752000  0.03346000  0.32837000  1.0 0.1954139149
Cu  Cu8  1  0.53841000  0.32745000  0.42367000  1.0 0.2201592675
Cu  Cu9  1  0.50000000  0.00000000  0.00000000  1.0 0.1789855337
H  H1  1  0.93050000  0.90610000  0.28300000  1.0 0.1378669223
H  H2  1  0.75910000  0.91040000  0.10230000  1.0 0.1197550087
H  H3  1  0.99130000  0.74250000  0.96500000  1.0 0.1378669223
H  H4  1  0.16330000  0.74010000  0.14380000  1.0 0.1378669223
H  H5  1  0.21420000  0.97760000  0.43350000  1.0 0.131434766
H  H6  1  0.21940000  0.66990000  0.33200000  1.0 0.1378669223
H  H7  1  0.65390000  0.64750000  0.83300000  1.0 0.1378669223
H  H8  1  0.74540000  0.98900000  0.89410000  1.0 0.1083071431
H  H9  1  0.06950000  0.09390000  0.71700000  1.0 0.1378669223
H  H10  1  0.24090000  0.08960000  0.89770000  1.0 0.1197550087
H  H11  1  0.00870000  0.25750000  0.03500000  1.0 0.1378669223
H  H12  1  0.83670000  0.25990000  0.85620000  1.0 0.1378669223
H  H13  1  0.78580000  0.02240000  0.56650000  1.0 0.131434766
H  H14  1  0.78060000  0.33010000  0.66800000  1.0 0.1378669223
H  H15  1  0.34610000  0.35250000  0.16700000  1.0 0.1378669223
H  H16  1  0.25460000  0.01100000  0.10590000  1.0 0.1083071431
C  C1  1  0.37290000  0.83990000  0.96120000  1.0 -0.052376459
C  C2  1  0.91740000  0.50960000  0.86180000  1.0 -0.0894295299
C  C3  1  0.37350000  0.43390000  0.84690000  1.0 -0.1064577574
C  C4  1  0.45310000  0.11250000  0.71940000  1.0 -0.1177258441
C  C5  1  0.06240000  0.82410000  0.22930000  1.0 0.1466263136
C  C6  1  0.94230000  0.87380000  0.21900000  1.0 -0.1597023556
C  C7  1  0.83880000  0.87490000  0.11110000  1.0 -0.1597023556
C  C8  1  0.85430000  0.82290000  0.01610000  1.0 0.1466263136
C  C9  1  0.97830000  0.77450000  0.02870000  1.0 -0.1502646529
C  C10  1  0.08160000  0.77380000  0.13500000  1.0 -0.1502646529
C  C11  1  0.23330000  0.90650000  0.43290000  1.0 0.0672014406
C  C12  1  0.23710000  0.73770000  0.37720000  1.0 0.1197550087
C  C13  1  0.65280000  0.72420000  0.82490000  1.0 0.1197550087
C  C14  1  0.70160000  0.91130000  0.85860000  1.0 0.0953187621
C  C15  1  0.62710000  0.16010000  0.03880000  1.0 -0.052376459
C  C16  1  0.08260000  0.49040000  0.13820000  1.0 -0.0894295299
C  C17  1  0.62650000  0.56610000  0.15310000  1.0 -0.1064577574
C  C18  1  0.54690000  0.88750000  0.28060000  1.0 -0.1177258441
C  C19  1  0.93760000  0.17590000  0.77070000  1.0 0.1466263136
C  C20  1  0.05770000  0.12620000  0.78100000  1.0 -0.1597023556
C  C21  1  0.16120000  0.12510000  0.88890000  1.0 -0.1597023556
C  C22  1  0.14570000  0.17710000  0.98390000  1.0 0.1466263136
C  C23  1  0.02170000  0.22550000  0.97130000  1.0 -0.1502646529
C  C24  1  0.91840000  0.22620000  0.86500000  1.0 -0.1502646529
C  C25  1  0.76670000  0.09350000  0.56710000  1.0 0.0672014406
C  C26  1  0.76290000  0.26230000  0.62280000  1.0 0.1197550087
C  C27  1  0.34720000  0.27580000  0.17510000  1.0 0.1197550087
C  C28  1  0.29840000  0.08870000  0.14140000  1.0 0.0953187621
N  N1  1  0.29500000  0.73860000  0.93970000  1.0 -0.3025882343
N  N2  1  0.77110000  0.46680000  0.83870000  1.0 -0.3389605904
N  N3  1  0.28670000  0.47190000  0.87220000  1.0 -0.3025882343
N  N4  1  0.47060000  0.21030000  0.74880000  1.0 -0.319540503
N  N5  1  0.49010000  0.54140000  0.51890000  1.0 -0.1291469658
N  N6  1  0.16930000  0.82110000  0.34120000  1.0 -0.0165684787
N  N7  1  0.32660000  0.87160000  0.52030000  1.0 -0.1425406659
N  N8  1  0.33100000  0.76470000  0.48380000  1.0 -0.1670649262
N  N9  1  0.59140000  0.87740000  0.75750000  1.0 -0.1670649262
N  N10  1  0.56260000  0.75680000  0.73400000  1.0 -0.1502646529
N  N11  1  0.74450000  0.82160000  0.90540000  1.0 -0.0087988266
N  N12  1  0.70500000  0.26140000  0.06030000  1.0 -0.3025882343
N  N13  1  0.22890000  0.53320000  0.16130000  1.0 -0.3389605904
N  N14  1  0.71330000  0.52810000  0.12780000  1.0 -0.3025882343
N  N15  1  0.52940000  0.78970000  0.25120000  1.0 -0.319540503
N  N16  1  0.50990000  0.45860000  0.48110000  1.0 -0.1291469658
N  N17  1  0.83070000  0.17890000  0.65880000  1.0 -0.0165684787
N  N18  1  0.67340000  0.12840000  0.47970000  1.0 -0.1425406659
N  N19  1  0.66900000  0.23530000  0.51620000  1.0 -0.1670649262
N  N20  1  0.40860000  0.12260000  0.24250000  1.0 -0.1670649262
N  N21  1  0.43740000  0.24320000  0.26600000  1.0 -0.1502646529
N  N22  1  0.25550000  0.17840000  0.09460000  1.0 -0.0087988266
