# DDEC6 charges by PACMAN v1.1 (https://github.com/mtap-research/PACMAN-charge/)
data_XEMKOS_ASR_pacman
_symmetry_space_group_name_H-M   'P 1'
_cell_length_a   17.38150000
_cell_length_b   17.38150000
_cell_length_c   17.38150000
_cell_angle_alpha   105.96600000
_cell_angle_beta   105.96600000
_cell_angle_gamma   116.73600000
_symmetry_Int_Tables_number   1
_chemical_formula_structural   Cu4H24C40O19
_chemical_formula_sum   'Cu12 H72 C120 O57'
_cell_volume   3993.03688248
_cell_formula_units_Z   3
loop_
 _symmetry_equiv_pos_site_id
 _symmetry_equiv_pos_as_xyz
  1  'x, y, z'
loop_
 _atom_site_type_symbol
 _atom_site_label
 _atom_site_symmetry_multiplicity
 _atom_site_fract_x
 _atom_site_fract_y
 _atom_site_fract_z
 _atom_site_occupancy
 _atom_site_charge
Cu  Cu1  1  0.63111000  0.84238000  0.47349000  1.0 0.8218438015
Cu  Cu2  1  0.75658000  0.85205000  0.60863000  1.0 0.8507382855
Cu  Cu3  1  0.36889000  0.15762000  0.52651000  1.0 0.8218438015
Cu  Cu4  1  0.24342000  0.14795000  0.39137000  1.0 0.8507382855
Cu  Cu5  1  0.15762000  0.63111000  0.78873000  1.0 0.8218438015
Cu  Cu6  1  0.14795000  0.75658000  0.90453000  1.0 0.8507382855
Cu  Cu7  1  0.84238000  0.36889000  0.21127000  1.0 0.8218438015
Cu  Cu8  1  0.85205000  0.24342000  0.09547000  1.0 0.8507382855
Cu  Cu9  1  0.63484000  0.63484000  0.00000000  1.0 0.7673411057
Cu  Cu10  1  0.77892000  0.77892000  0.00000000  1.0 0.9213778064
Cu  Cu11  1  0.36516000  0.36516000  0.00000000  1.0 0.7673411057
Cu  Cu12  1  0.22108000  0.22108000  0.00000000  1.0 0.9271083757
H  H1  1  0.74790000  0.80750000  0.29120000  1.0 0.2359682207
H  H2  1  0.97570000  0.89900000  0.51490000  1.0 0.1191300549
H  H3  1  0.05710000  0.88570000  0.43440000  1.0 0.1098076323
H  H4  1  0.27620000  0.86100000  0.39000000  1.0 0.1191300549
H  H5  1  0.19920000  0.69600000  0.34340000  1.0 0.1098076323
H  H6  1  0.03100000  0.59300000  0.26380000  1.0 0.1098076323
H  H7  1  0.94400000  0.65720000  0.23200000  1.0 0.1541899465
H  H8  1  0.49620000  0.52050000  0.04830000  1.0 -0.0508326263
H  H9  1  0.44660000  0.47720000  0.95540000  1.0 -0.0567868121
H  H10  1  0.51630000  0.45670000  0.70880000  1.0 0.2348521039
H  H11  1  0.38410000  0.46080000  0.48510000  1.0 0.1191300549
H  H12  1  0.45130000  0.62270000  0.56560000  1.0 0.1098076323
H  H13  1  0.47100000  0.88620000  0.61000000  1.0 0.1191300549
H  H14  1  0.35260000  0.85580000  0.65660000  1.0 0.1098076323
H  H15  1  0.32920000  0.76720000  0.73620000  1.0 0.1098076323
H  H16  1  0.42520000  0.71200000  0.76800000  1.0 0.1541899465
H  H17  1  0.47220000  0.44790000  0.95170000  1.0 -0.0508326263
H  H18  1  0.52180000  0.49120000  0.04460000  1.0 -0.0508326263
H  H19  1  0.45670000  0.74790000  0.94040000  1.0 0.2359682207
H  H20  1  0.46080000  0.97570000  0.07670000  1.0 0.1191300549
H  H21  1  0.62270000  0.05710000  0.17140000  1.0 0.1098076323
H  H22  1  0.88620000  0.27620000  0.41520000  1.0 0.1191300549
H  H23  1  0.85580000  0.19920000  0.50320000  1.0 0.1098076323
H  H24  1  0.76720000  0.03100000  0.43800000  1.0 0.1098076323
H  H25  1  0.71200000  0.94400000  0.28680000  1.0 0.1541899465
H  H26  1  0.44790000  0.49620000  0.97570000  1.0 -0.0508326263
H  H27  1  0.49120000  0.44660000  0.96940000  1.0 -0.0508326263
H  H28  1  0.80750000  0.51630000  0.05960000  1.0 0.2359682207
H  H29  1  0.89900000  0.38410000  0.92330000  1.0 0.1191300549
H  H30  1  0.88570000  0.45130000  0.82860000  1.0 0.1098076323
H  H31  1  0.86100000  0.47100000  0.58480000  1.0 0.1191300549
H  H32  1  0.69600000  0.35260000  0.49680000  1.0 0.1098076323
H  H33  1  0.59300000  0.32920000  0.56200000  1.0 0.1098076323
H  H34  1  0.65720000  0.42520000  0.71320000  1.0 0.1541899465
H  H35  1  0.52050000  0.47220000  0.02430000  1.0 -0.0508326263
H  H36  1  0.47720000  0.52180000  0.03060000  1.0 -0.0567868121
H  H37  1  0.25210000  0.19250000  0.70880000  1.0 0.2348521039
H  H38  1  0.02430000  0.10100000  0.48510000  1.0 0.1191300549
H  H39  1  0.94290000  0.11430000  0.56560000  1.0 0.1098076323
H  H40  1  0.72380000  0.13900000  0.61000000  1.0 0.1191300549
H  H41  1  0.80080000  0.30400000  0.65660000  1.0 0.1098076323
H  H42  1  0.96900000  0.40700000  0.73620000  1.0 0.1098076323
H  H43  1  0.05600000  0.34280000  0.76800000  1.0 0.1541899465
H  H44  1  0.50380000  0.47950000  0.95170000  1.0 -0.0508326263
H  H45  1  0.55340000  0.52280000  0.04460000  1.0 -0.0567868121
H  H46  1  0.48370000  0.54330000  0.29120000  1.0 0.2359682207
H  H47  1  0.61590000  0.53920000  0.51490000  1.0 0.1191300549
H  H48  1  0.54870000  0.37730000  0.43440000  1.0 0.1098076323
H  H49  1  0.52900000  0.11380000  0.39000000  1.0 0.1191300549
H  H50  1  0.64740000  0.14420000  0.34340000  1.0 0.1098076323
H  H51  1  0.67080000  0.23280000  0.26380000  1.0 0.1098076323
H  H52  1  0.57480000  0.28800000  0.23200000  1.0 0.1541899465
H  H53  1  0.52780000  0.55210000  0.04830000  1.0 -0.0508326263
H  H54  1  0.47820000  0.50880000  0.95540000  1.0 -0.0567868121
H  H55  1  0.54330000  0.25210000  0.05960000  1.0 0.2359682207
H  H56  1  0.53920000  0.02430000  0.92330000  1.0 0.1191300549
H  H57  1  0.37730000  0.94290000  0.82860000  1.0 0.1098076323
H  H58  1  0.11380000  0.72380000  0.58480000  1.0 0.1191300549
H  H59  1  0.14420000  0.80080000  0.49680000  1.0 0.1098076323
H  H60  1  0.23280000  0.96900000  0.56200000  1.0 0.1098076323
H  H61  1  0.28800000  0.05600000  0.71320000  1.0 0.1541899465
H  H62  1  0.55210000  0.50380000  0.02430000  1.0 -0.0567868121
H  H63  1  0.50880000  0.55340000  0.03060000  1.0 -0.0508326263
H  H64  1  0.19250000  0.48370000  0.94040000  1.0 0.2359682207
H  H65  1  0.10100000  0.61590000  0.07670000  1.0 0.1191300549
H  H66  1  0.11430000  0.54870000  0.17140000  1.0 0.1098076323
H  H67  1  0.13900000  0.52900000  0.41520000  1.0 0.1191300549
H  H68  1  0.30400000  0.64740000  0.50320000  1.0 0.1098076323
H  H69  1  0.40700000  0.67080000  0.43800000  1.0 0.1098076323
H  H70  1  0.34280000  0.57480000  0.28680000  1.0 0.1541899465
H  H71  1  0.47950000  0.52780000  0.97570000  1.0 -0.0508326263
H  H72  1  0.52280000  0.47820000  0.96940000  1.0 -0.0508326263
C  C1  1  0.95250000  0.84080000  0.31350000  1.0 0.2208731737
C  C2  1  0.85890000  0.81760000  0.26850000  1.0 -0.0016140072
C  C3  1  0.80480000  0.77720000  0.16640000  1.0 0.5136087671
C  C4  1  0.81110000  0.82480000  0.31990000  1.0 -0.0058832095
C  C5  1  0.85370000  0.85630000  0.41060000  1.0 -0.0693242523
C  C6  1  0.94670000  0.87900000  0.45330000  1.0 -0.1008143356
C  C7  1  0.99500000  0.87090000  0.40530000  1.0 -0.2226298392
C  C8  1  0.79550000  0.85690000  0.45940000  1.0 0.560517019
C  C9  1  0.21200000  0.97030000  0.37930000  1.0 0.5879174903
C  C10  1  0.15750000  0.86000000  0.33950000  1.0 -0.1148980554
C  C11  1  0.20870000  0.82020000  0.35790000  1.0 -0.1008143356
C  C12  1  0.16260000  0.72080000  0.33000000  1.0 -0.1332670642
C  C13  1  0.06280000  0.65950000  0.28250000  1.0 -0.0693242523
C  C14  1  0.01160000  0.69830000  0.26350000  1.0 -0.1890396798
C  C15  1  0.05660000  0.79660000  0.28960000  1.0 0.2208731737
C  C16  1  0.52730000  0.63900000  0.68650000  1.0 0.2208731737
C  C17  1  0.54910000  0.59040000  0.73150000  1.0 -0.0016140072
C  C18  1  0.61080000  0.63840000  0.83360000  1.0 0.5136087671
C  C19  1  0.50490000  0.49120000  0.68010000  1.0 -0.0058832095
C  C20  1  0.44570000  0.44310000  0.58940000  1.0 -0.0693242523
C  C21  1  0.42570000  0.49340000  0.54670000  1.0 -0.1008143356
C  C22  1  0.46560000  0.58970000  0.59470000  1.0 -0.2226298392
C  C23  1  0.39750000  0.33610000  0.54060000  1.0 0.560517019
C  C24  1  0.59100000  0.83270000  0.62070000  1.0 0.5879174903
C  C25  1  0.52050000  0.81800000  0.66050000  1.0 -0.1148980554
C  C26  1  0.46230000  0.85080000  0.64210000  1.0 -0.1008143356
C  C27  1  0.39080000  0.83260000  0.67000000  1.0 -0.1332670642
C  C28  1  0.37700000  0.78030000  0.71750000  1.0 -0.0693242523
C  C29  1  0.43480000  0.74810000  0.73650000  1.0 -0.1890396798
C  C30  1  0.50700000  0.76700000  0.71040000  1.0 0.2208731737
C  C31  1  0.63900000  0.95250000  0.11170000  1.0 0.2208731737
C  C32  1  0.59040000  0.85890000  0.04130000  1.0 -0.0016140072
C  C33  1  0.63840000  0.80480000  0.02760000  1.0 0.5136087671
C  C34  1  0.49120000  0.81110000  0.98630000  1.0 -0.0058832095
C  C35  1  0.44310000  0.85370000  0.99740000  1.0 -0.0693242523
C  C36  1  0.49340000  0.94670000  0.06770000  1.0 -0.1008143356
C  C37  1  0.58970000  0.99500000  0.12410000  1.0 -0.2226298392
C  C38  1  0.33610000  0.79550000  0.93860000  1.0 0.560517019
C  C39  1  0.83270000  0.21200000  0.24170000  1.0 0.5879174903
C  C40  1  0.81800000  0.15750000  0.29750000  1.0 -0.1148980554
C  C41  1  0.85080000  0.20870000  0.38850000  1.0 -0.1008143356
C  C42  1  0.83260000  0.16260000  0.44180000  1.0 -0.1332670642
C  C43  1  0.78030000  0.06280000  0.40330000  1.0 -0.0693242523
C  C44  1  0.74810000  0.01160000  0.31330000  1.0 -0.1890396798
C  C45  1  0.76700000  0.05660000  0.26000000  1.0 0.2208731737
C  C46  1  0.84080000  0.52730000  0.88830000  1.0 0.2208731737
C  C47  1  0.81760000  0.54910000  0.95870000  1.0 -0.0016140072
C  C48  1  0.77720000  0.61080000  0.97240000  1.0 0.5136087671
C  C49  1  0.82480000  0.50490000  0.01370000  1.0 -0.0058832095
C  C50  1  0.85630000  0.44570000  0.00260000  1.0 -0.0693242523
C  C51  1  0.87900000  0.42570000  0.93230000  1.0 -0.1008143356
C  C52  1  0.87090000  0.46560000  0.87590000  1.0 -0.2226298392
C  C53  1  0.85690000  0.39750000  0.06140000  1.0 0.560517019
C  C54  1  0.97030000  0.59100000  0.75830000  1.0 0.5879174903
C  C55  1  0.86000000  0.52050000  0.70250000  1.0 -0.1148980554
C  C56  1  0.82020000  0.46230000  0.61150000  1.0 -0.1008143356
C  C57  1  0.72080000  0.39080000  0.55820000  1.0 -0.1332670642
C  C58  1  0.65950000  0.37700000  0.59670000  1.0 -0.0693242523
C  C59  1  0.69830000  0.43480000  0.68670000  1.0 -0.1890396798
C  C60  1  0.79660000  0.50700000  0.74000000  1.0 0.2208731737
C  C61  1  0.04750000  0.15920000  0.68650000  1.0 0.2208731737
C  C62  1  0.14110000  0.18240000  0.73150000  1.0 -0.0016140072
C  C63  1  0.19520000  0.22280000  0.83360000  1.0 0.5136087671
C  C64  1  0.18890000  0.17520000  0.68010000  1.0 -0.0058832095
C  C65  1  0.14630000  0.14370000  0.58940000  1.0 -0.0693242523
C  C66  1  0.05330000  0.12100000  0.54670000  1.0 -0.1008143356
C  C67  1  0.00500000  0.12910000  0.59470000  1.0 -0.2226298392
C  C68  1  0.20450000  0.14310000  0.54060000  1.0 0.560517019
C  C69  1  0.78800000  0.02970000  0.62070000  1.0 0.5879174903
C  C70  1  0.84250000  0.14000000  0.66050000  1.0 -0.1148980554
C  C71  1  0.79130000  0.17980000  0.64210000  1.0 -0.1008143356
C  C72  1  0.83740000  0.27920000  0.67000000  1.0 -0.1332670642
C  C73  1  0.93720000  0.34050000  0.71750000  1.0 -0.0693242523
C  C74  1  0.98840000  0.30170000  0.73650000  1.0 -0.1890396798
C  C75  1  0.94340000  0.20340000  0.71040000  1.0 0.2208731737
C  C76  1  0.47270000  0.36100000  0.31350000  1.0 0.2208731737
C  C77  1  0.45090000  0.40960000  0.26850000  1.0 -0.0016140072
C  C78  1  0.38920000  0.36160000  0.16640000  1.0 0.5136087671
C  C79  1  0.49510000  0.50880000  0.31990000  1.0 -0.0058832095
C  C80  1  0.55430000  0.55690000  0.41060000  1.0 -0.0693242523
C  C81  1  0.57430000  0.50660000  0.45330000  1.0 -0.1008143356
C  C82  1  0.53440000  0.41030000  0.40530000  1.0 -0.2226298392
C  C83  1  0.60250000  0.66390000  0.45940000  1.0 0.560517019
C  C84  1  0.40900000  0.16730000  0.37930000  1.0 0.5879174903
C  C85  1  0.47950000  0.18200000  0.33950000  1.0 -0.1148980554
C  C86  1  0.53770000  0.14920000  0.35790000  1.0 -0.1008143356
C  C87  1  0.60920000  0.16740000  0.33000000  1.0 -0.1332670642
C  C88  1  0.62300000  0.21970000  0.28250000  1.0 -0.0693242523
C  C89  1  0.56520000  0.25190000  0.26350000  1.0 -0.1890396798
C  C90  1  0.49300000  0.23300000  0.28960000  1.0 0.2208731737
C  C91  1  0.36100000  0.04750000  0.88830000  1.0 0.2208731737
C  C92  1  0.40960000  0.14110000  0.95870000  1.0 -0.0016140072
C  C93  1  0.36160000  0.19520000  0.97240000  1.0 0.5136087671
C  C94  1  0.50880000  0.18890000  0.01370000  1.0 -0.0058832095
C  C95  1  0.55690000  0.14630000  0.00260000  1.0 -0.0693242523
C  C96  1  0.50660000  0.05330000  0.93230000  1.0 -0.1008143356
C  C97  1  0.41030000  0.00500000  0.87590000  1.0 -0.2226298392
C  C98  1  0.66390000  0.20450000  0.06140000  1.0 0.560517019
C  C99  1  0.16730000  0.78800000  0.75830000  1.0 0.5879174903
C  C100  1  0.18200000  0.84250000  0.70250000  1.0 -0.1148980554
C  C101  1  0.14920000  0.79130000  0.61150000  1.0 -0.1008143356
C  C102  1  0.16740000  0.83740000  0.55820000  1.0 -0.1332670642
C  C103  1  0.21970000  0.93720000  0.59670000  1.0 -0.0693242523
C  C104  1  0.25190000  0.98840000  0.68670000  1.0 -0.1890396798
C  C105  1  0.23300000  0.94340000  0.74000000  1.0 0.2208731737
C  C106  1  0.15920000  0.47270000  0.11170000  1.0 0.2208731737
C  C107  1  0.18240000  0.45090000  0.04130000  1.0 -0.0016140072
C  C108  1  0.22280000  0.38920000  0.02760000  1.0 0.5136087671
C  C109  1  0.17520000  0.49510000  0.98630000  1.0 -0.0058832095
C  C110  1  0.14370000  0.55430000  0.99740000  1.0 -0.0693242523
C  C111  1  0.12100000  0.57430000  0.06770000  1.0 -0.1008143356
C  C112  1  0.12910000  0.53440000  0.12410000  1.0 -0.2226298392
C  C113  1  0.14310000  0.60250000  0.93860000  1.0 0.560517019
C  C114  1  0.02970000  0.40900000  0.24170000  1.0 0.5879174903
C  C115  1  0.14000000  0.47950000  0.29750000  1.0 -0.1148980554
C  C116  1  0.17980000  0.53770000  0.38850000  1.0 -0.1008143356
C  C117  1  0.27920000  0.60920000  0.44180000  1.0 -0.1332670642
C  C118  1  0.34050000  0.62300000  0.40330000  1.0 -0.0693242523
C  C119  1  0.30170000  0.56520000  0.31330000  1.0 -0.1890396798
C  C120  1  0.20340000  0.49300000  0.26000000  1.0 0.2208731737
O  O1  1  0.00050000  0.83110000  0.26380000  1.0 -0.1890396798
O  O2  1  0.17960000  0.00680000  0.33820000  1.0 -0.4824458524
O  O3  1  0.28760000  0.01570000  0.45370000  1.0 -0.5274487302
O  O4  1  0.72030000  0.85330000  0.42180000  1.0 -0.5274487302
O  O5  1  0.82700000  0.86250000  0.53770000  1.0 -0.5387310549
O  O6  1  0.84820000  0.81460000  0.12900000  1.0 -0.4687417537
O  O7  1  0.71510000  0.70620000  0.13050000  1.0 -0.452683644
O  O8  1  0.56730000  0.73670000  0.73620000  1.0 -0.1890396798
O  O9  1  0.66860000  0.84140000  0.66180000  1.0 -0.4824458524
O  O10  1  0.56200000  0.83390000  0.54630000  1.0 -0.5274487302
O  O11  1  0.43150000  0.29850000  0.57820000  1.0 -0.5274487302
O  O12  1  0.32480000  0.28930000  0.46230000  1.0 -0.5387310549
O  O13  1  0.68560000  0.71920000  0.87100000  1.0 -0.4687417537
O  O14  1  0.57570000  0.58460000  0.86950000  1.0 -0.452683644
O  O15  1  0.73670000  0.00050000  0.16940000  1.0 -0.1890396798
O  O16  1  0.84140000  0.17960000  0.17280000  1.0 -0.4824458524
O  O17  1  0.83390000  0.28760000  0.27190000  1.0 -0.5274487302
O  O18  1  0.29850000  0.72030000  0.86700000  1.0 -0.5274487302
O  O19  1  0.28930000  0.82700000  0.96450000  1.0 -0.5387310549
O  O20  1  0.71920000  0.84820000  0.03360000  1.0 -0.4687417537
O  O21  1  0.58460000  0.71510000  0.00890000  1.0 -0.452683644
O  O22  1  0.83110000  0.56730000  0.83060000  1.0 -0.1890396798
O  O23  1  0.00680000  0.66860000  0.82720000  1.0 -0.4824458524
O  O24  1  0.01570000  0.56200000  0.72810000  1.0 -0.5274487302
O  O25  1  0.85330000  0.43150000  0.13300000  1.0 -0.5274487302
O  O26  1  0.86250000  0.32480000  0.03550000  1.0 -0.5387310549
O  O27  1  0.81460000  0.68560000  0.96640000  1.0 -0.4687417537
O  O28  1  0.70620000  0.57570000  0.99110000  1.0 -0.452683644
O  O29  1  0.99950000  0.16890000  0.73620000  1.0 -0.1890396798
O  O30  1  0.82040000  0.99320000  0.66180000  1.0 -0.4824458524
O  O31  1  0.71240000  0.98430000  0.54630000  1.0 -0.5274487302
O  O32  1  0.27970000  0.14670000  0.57820000  1.0 -0.5274487302
O  O33  1  0.17300000  0.13750000  0.46230000  1.0 -0.5387310549
O  O34  1  0.15180000  0.18540000  0.87100000  1.0 -0.4687417537
O  O35  1  0.28490000  0.29380000  0.86950000  1.0 -0.452683644
O  O36  1  0.43270000  0.26330000  0.26380000  1.0 -0.1890396798
O  O37  1  0.33140000  0.15860000  0.33820000  1.0 -0.4824458524
O  O38  1  0.43800000  0.16610000  0.45370000  1.0 -0.5274487302
O  O39  1  0.56850000  0.70150000  0.42180000  1.0 -0.5274487302
O  O40  1  0.67520000  0.71070000  0.53770000  1.0 -0.5387310549
O  O41  1  0.31440000  0.28080000  0.12900000  1.0 -0.4687417537
O  O42  1  0.42430000  0.41540000  0.13050000  1.0 -0.452683644
O  O43  1  0.26330000  0.99950000  0.83060000  1.0 -0.1890396798
O  O44  1  0.15860000  0.82040000  0.82720000  1.0 -0.4824458524
O  O45  1  0.16610000  0.71240000  0.72810000  1.0 -0.5274487302
O  O46  1  0.70150000  0.27970000  0.13300000  1.0 -0.5274487302
O  O47  1  0.71070000  0.17300000  0.03550000  1.0 -0.5387310549
O  O48  1  0.28080000  0.15180000  0.96640000  1.0 -0.4687417537
O  O49  1  0.41540000  0.28490000  0.99110000  1.0 -0.452683644
O  O50  1  0.16890000  0.43270000  0.16940000  1.0 -0.1890396798
O  O51  1  0.99320000  0.33140000  0.17280000  1.0 -0.4824458524
O  O52  1  0.98430000  0.43800000  0.27190000  1.0 -0.5274487302
O  O53  1  0.14670000  0.56850000  0.86700000  1.0 -0.5274487302
O  O54  1  0.13750000  0.67520000  0.96450000  1.0 -0.5387310549
O  O55  1  0.18540000  0.31440000  0.03360000  1.0 -0.4687417537
O  O56  1  0.29380000  0.42430000  0.00890000  1.0 -0.452683644
O  O57  1  0.50000000  0.50000000  0.00000000  1.0 -0.1680301294
