# DDEC6 charges by PACMAN v1.1 (https://github.com/mtap-research/PACMAN-charge/)
data_XEMZAT_ASR_pacman
_symmetry_space_group_name_H-M   'P 1'
_cell_length_a   17.95300000
_cell_length_b   18.17600000
_cell_length_c   25.21200000
_cell_angle_alpha   106.21000000
_cell_angle_beta   106.87000000
_cell_angle_gamma   101.57000000
_symmetry_Int_Tables_number   1
_chemical_formula_structural   Co4P4H48Pd2C78Cl2O19
_chemical_formula_sum   'Co8 P8 H96 Pd4 C156 Cl4 O38'
_cell_volume   7196.32111184
_cell_formula_units_Z   2
loop_
 _symmetry_equiv_pos_site_id
 _symmetry_equiv_pos_as_xyz
  1  'x, y, z'
loop_
 _atom_site_type_symbol
 _atom_site_label
 _atom_site_symmetry_multiplicity
 _atom_site_fract_x
 _atom_site_fract_y
 _atom_site_fract_z
 _atom_site_occupancy
 _atom_site_charge
Co  Co1  1  0.29637000  0.78750000  0.72965000  1.0 1.0824818471
Co  Co2  1  0.71004000  0.20469000  0.75596000  1.0 1.1287892321
Co  Co3  1  0.34361000  0.99072000  0.73817000  1.0 1.1227359632
Co  Co4  1  0.64244000  0.25766000  0.87669000  1.0 1.1495201448
Co  Co5  1  0.70363000  0.21250000  0.27035000  1.0 1.0824818471
Co  Co6  1  0.28996000  0.79531000  0.24404000  1.0 1.1287892321
Co  Co7  1  0.65639000  0.00928000  0.26183000  1.0 1.1227359632
Co  Co8  1  0.35756000  0.74234000  0.12331000  1.0 1.1495201448
P  P1  1  0.76172000  0.57703000  0.60891000  1.0 0.407484577
P  P2  1  0.56252000  0.68695000  0.55018000  1.0 0.4508543024
P  P3  1  0.09810000  0.26460000  0.08895000  1.0 0.4806064078
P  P4  1  0.19604000  0.05588000  0.04030000  1.0 0.4386826763
P  P5  1  0.23828000  0.42297000  0.39109000  1.0 0.396054999
P  P6  1  0.43748000  0.31305000  0.44982000  1.0 0.4508543024
P  P7  1  0.90190000  0.73540000  0.91105000  1.0 0.4806064078
P  P8  1  0.80396000  0.94412000  0.95970000  1.0 0.4386826763
H  H1  1  0.60884000  0.46428000  0.68890000  1.0 0.138668566
H  H2  1  0.47399000  0.45494000  0.66259000  1.0 0.1207456052
H  H3  1  0.41743000  0.52218000  0.60545000  1.0 0.1296491977
H  H4  1  0.73572000  0.49281000  0.66146000  1.0 0.1505307266
H  H5  1  0.75753000  0.58530000  0.70264000  1.0 0.1505307266
H  H6  1  0.44286000  0.63439000  0.56554000  1.0 0.1505307266
H  H7  1  0.45027000  0.56929000  0.51073000  1.0 0.1589200357
H  H8  1  0.88885000  0.71425000  0.62665000  1.0 0.1082885245
H  H9  1  0.03582000  0.76028000  0.67745000  1.0 0.1082885245
H  H10  1  0.02564000  0.57672000  0.73283000  1.0 0.1207456052
H  H11  1  0.88285000  0.52566000  0.68375000  1.0 0.0907294238
H  H12  1  0.75660000  0.41086000  0.59190000  1.0 0.1207456052
H  H13  1  0.73549000  0.29933000  0.50965000  1.0 0.1207456052
H  H14  1  0.72213000  0.43562000  0.40678000  1.0 0.1207456052
H  H15  1  0.74198000  0.54558000  0.48878000  1.0 0.1207456052
H  H16  1  0.61803000  0.69996000  0.45579000  1.0 0.1207456052
H  H17  1  0.56529000  0.72926000  0.37002000  1.0 0.1207456052
H  H18  1  0.36348000  0.73633000  0.40340000  1.0 0.1207456052
H  H19  1  0.41621000  0.71071000  0.48900000  1.0 0.1207456052
H  H20  1  0.47643000  0.76073000  0.62519000  1.0 0.1207456052
H  H21  1  0.49676000  0.89363000  0.68385000  1.0 0.1296491977
H  H22  1  0.69310000  0.96926000  0.64291000  1.0 0.1296491977
H  H23  1  0.67463000  0.83479000  0.58795000  1.0 0.1207456052
H  H24  1  0.97501000  0.13742000  0.17473000  1.0 0.1296491977
H  H25  1  0.95069000  0.99938000  0.15193000  1.0 0.1207456052
H  H26  1  0.01199000  0.93057000  0.09327000  1.0 0.1207456052
H  H27  1  0.11554000  0.26958000  0.18636000  1.0 0.1589200357
H  H28  1  0.02142000  0.25799000  0.15011000  1.0 0.1505307266
H  H29  1  0.07043000  0.95288000  0.00053000  1.0 0.1589200357
H  H30  1  0.13178000  0.94267000  0.05679000  1.0 0.138668566
H  H31  1  0.15743000  0.36726000  0.03573000  1.0 0.1207456052
H  H32  1  0.21367000  0.50514000  0.06214000  1.0 0.1296491977
H  H33  1  0.19852000  0.54223000  0.22318000  1.0 0.1207456052
H  H34  1  0.14431000  0.40311000  0.19716000  1.0 0.1207456052
H  H35  1  0.92942000  0.25926000  0.07393000  1.0 0.1207456052
H  H36  1  0.81041000  0.23147000  0.99090000  1.0 0.1207456052
H  H37  1  0.93926000  0.20729000  0.88428000  1.0 0.138668566
H  H38  1  0.05593000  0.22523000  0.96436000  1.0 0.1207456052
H  H39  1  0.23501000  0.11834000  0.95774000  1.0 0.1207456052
H  H40  1  0.26641000  0.06746000  0.87284000  1.0 0.1296491977
H  H41  1  0.21889000  0.84710000  0.88205000  1.0 0.1296491977
H  H42  1  0.18573000  0.89636000  0.96758000  1.0 0.1082885245
H  H43  1  0.26141000  0.96092000  0.11150000  1.0 0.1207456052
H  H44  1  0.39163000  0.97690000  0.17693000  1.0 0.138668566
H  H45  1  0.47833000  0.18572000  0.15593000  1.0 0.1296491977
H  H46  1  0.34999000  0.16997000  0.09119000  1.0 0.1207456052
H  H47  1  0.23616000  0.85512000  0.64648000  1.0 0.4386826763
H  H48  1  0.55301000  0.16962000  0.76117000  1.0 0.4695024649
H  H49  1  0.39116000  0.53572000  0.31110000  1.0 0.138668566
H  H50  1  0.52601000  0.54506000  0.33741000  1.0 0.1207456052
H  H51  1  0.58257000  0.47782000  0.39455000  1.0 0.1296491977
H  H52  1  0.26428000  0.50719000  0.33854000  1.0 0.1505307266
H  H53  1  0.24247000  0.41470000  0.29736000  1.0 0.1505307266
H  H54  1  0.55714000  0.36561000  0.43446000  1.0 0.1505307266
H  H55  1  0.54973000  0.43071000  0.48927000  1.0 0.1589200357
H  H56  1  0.11115000  0.28575000  0.37335000  1.0 0.1082885245
H  H57  1  0.96418000  0.23972000  0.32255000  1.0 0.104196311
H  H58  1  0.97436000  0.42328000  0.26717000  1.0 0.1207456052
H  H59  1  0.11715000  0.47434000  0.31625000  1.0 0.0907294238
H  H60  1  0.24340000  0.58914000  0.40810000  1.0 0.1207456052
H  H61  1  0.26451000  0.70067000  0.49035000  1.0 0.1207456052
H  H62  1  0.27787000  0.56438000  0.59322000  1.0 0.1207456052
H  H63  1  0.25802000  0.45442000  0.51122000  1.0 0.1207456052
H  H64  1  0.38197000  0.30004000  0.54421000  1.0 0.1207456052
H  H65  1  0.43471000  0.27074000  0.62998000  1.0 0.1207456052
H  H66  1  0.63652000  0.26367000  0.59660000  1.0 0.1207456052
H  H67  1  0.58379000  0.28929000  0.51100000  1.0 0.1207456052
H  H68  1  0.52357000  0.23927000  0.37481000  1.0 0.1207456052
H  H69  1  0.50324000  0.10637000  0.31615000  1.0 0.1296491977
H  H70  1  0.30690000  0.03074000  0.35709000  1.0 0.1296491977
H  H71  1  0.32537000  0.16521000  0.41205000  1.0 0.1207456052
H  H72  1  0.02499000  0.86258000  0.82527000  1.0 0.1296491977
H  H73  1  0.04931000  0.00062000  0.84807000  1.0 0.1207456052
H  H74  1  0.98801000  0.06943000  0.90673000  1.0 0.1207456052
H  H75  1  0.88446000  0.73042000  0.81364000  1.0 0.1589200357
H  H76  1  0.97858000  0.74201000  0.84989000  1.0 0.1505307266
H  H77  1  0.92957000  0.04712000  0.99947000  1.0 0.1589200357
H  H78  1  0.86822000  0.05733000  0.94321000  1.0 0.138668566
H  H79  1  0.84257000  0.63274000  0.96427000  1.0 0.1207456052
H  H80  1  0.78633000  0.49486000  0.93786000  1.0 0.1296491977
H  H81  1  0.80148000  0.45777000  0.77682000  1.0 0.1207456052
H  H82  1  0.85569000  0.59689000  0.80284000  1.0 0.1207456052
H  H83  1  0.07058000  0.74074000  0.92607000  1.0 0.1207456052
H  H84  1  0.18959000  0.76853000  0.00910000  1.0 0.1207456052
H  H85  1  0.06074000  0.79271000  0.11572000  1.0 0.138668566
H  H86  1  0.94407000  0.77477000  0.03564000  1.0 0.1207456052
H  H87  1  0.76499000  0.88166000  0.04226000  1.0 0.1207456052
H  H88  1  0.73359000  0.93254000  0.12716000  1.0 0.1296491977
H  H89  1  0.78111000  0.15290000  0.11795000  1.0 0.1296491977
H  H90  1  0.81427000  0.10364000  0.03242000  1.0 0.1082885245
H  H91  1  0.73859000  0.03908000  0.88850000  1.0 0.1207456052
H  H92  1  0.60837000  0.02310000  0.82307000  1.0 0.138668566
H  H93  1  0.52167000  0.81428000  0.84407000  1.0 0.1296491977
H  H94  1  0.65001000  0.83003000  0.90881000  1.0 0.1207456052
H  H95  1  0.76384000  0.14488000  0.35352000  1.0 0.4386826763
H  H96  1  0.44699000  0.83038000  0.23883000  1.0 0.4695024649
Pd  Pd1  1  0.67396000  0.64398000  0.57634000  1.0 -0.0688088955
Pd  Pd2  1  0.16108000  0.17212000  0.06195000  1.0 -0.0688088955
Pd  Pd3  1  0.32604000  0.35602000  0.42366000  1.0 -0.0596981279
Pd  Pd4  1  0.83892000  0.82788000  0.93805000  1.0 -0.0809250922
C  C1  1  0.60360000  0.57760000  0.60690000  1.0 -0.2041582754
C  C2  1  0.63700000  0.53690000  0.64420000  1.0 0.1505307266
C  C3  1  0.58670000  0.49170000  0.66420000  1.0 -0.1499976953
C  C4  1  0.50740000  0.48670000  0.64890000  1.0 -0.0596981279
C  C5  1  0.47350000  0.52570000  0.61460000  1.0 -0.1499976953
C  C6  1  0.52120000  0.57160000  0.59220000  1.0 0.1505307266
C  C7  1  0.72690000  0.54500000  0.66200000  1.0 -0.4117394144
C  C8  1  0.48120000  0.61000000  0.55120000  1.0 -0.4117394144
C  C9  1  0.87100000  0.62130000  0.64600000  1.0 -0.0307056494
C  C10  1  0.91410000  0.68300000  0.64620000  1.0 0.0002840892
C  C11  1  0.00480000  0.71050000  0.67630000  1.0 0.0076074656
C  C12  1  0.04210000  0.66720000  0.70100000  1.0 -0.0307056494
C  C13  1  0.99780000  0.60190000  0.70860000  1.0 -0.1626676759
C  C14  1  0.91360000  0.57280000  0.68130000  1.0 -0.0809250922
C  C15  1  0.13200000  0.69150000  0.72540000  1.0 0.3447802821
C  C16  1  0.74820000  0.48760000  0.54780000  1.0 -0.0596981279
C  C17  1  0.74840000  0.41580000  0.55420000  1.0 -0.1200079851
C  C18  1  0.73630000  0.34960000  0.50510000  1.0 -0.0989885406
C  C19  1  0.72540000  0.35470000  0.44960000  1.0 -0.0206994973
C  C20  1  0.72820000  0.42980000  0.44390000  1.0 -0.0989885406
C  C21  1  0.73970000  0.49470000  0.49260000  1.0 -0.1200079851
C  C22  1  0.71210000  0.28200000  0.39720000  1.0 0.565571771
C  C23  1  0.52170000  0.70220000  0.48080000  1.0 -0.0405762494
C  C24  1  0.56580000  0.70790000  0.44570000  1.0 -0.1200079851
C  C25  1  0.53430000  0.72550000  0.39450000  1.0 -0.0901840571
C  C26  1  0.45980000  0.73720000  0.37970000  1.0 -0.0106189172
C  C27  1  0.41650000  0.73010000  0.41410000  1.0 -0.0901840571
C  C28  1  0.44760000  0.71380000  0.46470000  1.0 -0.1266255966
C  C29  1  0.42650000  0.75680000  0.32510000  1.0 0.5788440117
C  C30  1  0.57470000  0.78530000  0.60230000  1.0 -0.0488334354
C  C31  1  0.52140000  0.80280000  0.62960000  1.0 -0.1104259569
C  C32  1  0.53300000  0.88230000  0.66390000  1.0 -0.0901840571
C  C33  1  0.59610000  0.94380000  0.66910000  1.0 -0.0106189172
C  C34  1  0.64960000  0.92710000  0.64020000  1.0 -0.0901840571
C  C35  1  0.63800000  0.84690000  0.60730000  1.0 -0.1104259569
C  C36  1  0.60920000  0.02980000  0.70560000  1.0 0.5788440117
C  C37  1  0.08880000  0.11100000  0.09410000  1.0 -0.2099192729
C  C38  1  0.05080000  0.15120000  0.13070000  1.0 0.1505307266
C  C39  1  0.00040000  0.10970000  0.15100000  1.0 -0.1626676759
C  C40  1  0.98570000  0.02760000  0.13740000  1.0 -0.0688088955
C  C41  1  0.02220000  0.98690000  0.10260000  1.0 -0.1626676759
C  C42  1  0.07370000  0.02750000  0.08110000  1.0 0.1505307266
C  C43  1  0.06990000  0.24130000  0.14750000  1.0 -0.4117394144
C  C44  1  0.11160000  0.98220000  0.04120000  1.0 -0.4030109635
C  C45  1  0.14510000  0.37280000  0.11380000  1.0 -0.0405762494
C  C46  1  0.16620000  0.40280000  0.07420000  1.0 -0.1104259569
C  C47  1  0.20020000  0.48460000  0.09010000  1.0 -0.0809250922
C  C48  1  0.21510000  0.53760000  0.14700000  1.0 -0.0307056494
C  C49  1  0.19180000  0.50680000  0.18520000  1.0 -0.0901840571
C  C50  1  0.15810000  0.42390000  0.16950000  1.0 -0.1266255966
C  C51  1  0.25120000  0.62550000  0.16300000  1.0 0.6105576465
C  C52  1  0.00520000  0.24560000  0.02740000  1.0 -0.0688088955
C  C53  1  0.93170000  0.24740000  0.03540000  1.0 -0.1104259569
C  C54  1  0.86090000  0.23170000  0.98600000  1.0 -0.1104259569
C  C55  1  0.86550000  0.21650000  0.93030000  1.0 -0.0106189172
C  C56  1  0.93680000  0.21610000  0.92260000  1.0 -0.0901840571
C  C57  1  0.00680000  0.22850000  0.97060000  1.0 -0.1200079851
C  C58  1  0.78800000  0.20290000  0.87840000  1.0 0.5940661887
C  C59  1  0.21120000  0.01220000  0.97110000  1.0 -0.0596981279
C  C60  1  0.23270000  0.06340000  0.94310000  1.0 -0.1104259569
C  C61  1  0.25120000  0.03270000  0.89250000  1.0 -0.0901840571
C  C62  1  0.24760000  0.95450000  0.87110000  1.0 -0.0106189172
C  C63  1  0.22290000  0.90230000  0.89790000  1.0 -0.0989885406
C  C64  1  0.20350000  0.93160000  0.94900000  1.0 -0.1200079851
C  C65  1  0.27500000  0.92730000  0.81860000  1.0 0.6105576465
C  C66  1  0.29210000  0.06320000  0.09470000  1.0 -0.0488334354
C  C67  1  0.30570000  0.00680000  0.12040000  1.0 -0.1104259569
C  C68  1  0.38360000  0.01590000  0.15920000  1.0 -0.0809250922
C  C69  1  0.44930000  0.08240000  0.17190000  1.0 -0.0206994973
C  C70  1  0.43440000  0.13930000  0.14660000  1.0 -0.0901840571
C  C71  1  0.35800000  0.13050000  0.10840000  1.0 -0.1104259569
C  C72  1  0.53310000  0.09150000  0.21170000  1.0 0.5966246584
C  C73  1  0.89570000  0.71240000  0.66810000  1.0 -0.0989885406
C  C74  1  0.97860000  0.75790000  0.68820000  1.0 -0.0596981279
C  C75  1  0.03300000  0.71500000  0.66880000  1.0 -0.0106189172
C  C76  1  0.01120000  0.63860000  0.64830000  1.0 -0.0307056494
C  C77  1  0.92740000  0.59010000  0.62760000  1.0 -0.0206994973
C  C78  1  0.12150000  0.76660000  0.68740000  1.0 0.407484577
C  C79  1  0.39640000  0.42240000  0.39310000  1.0 -0.2041582754
C  C80  1  0.36300000  0.46310000  0.35580000  1.0 0.1505307266
C  C81  1  0.41330000  0.50830000  0.33580000  1.0 -0.1499976953
C  C82  1  0.49260000  0.51330000  0.35110000  1.0 -0.0596981279
C  C83  1  0.52650000  0.47430000  0.38540000  1.0 -0.1499976953
C  C84  1  0.47880000  0.42840000  0.40780000  1.0 0.1505307266
C  C85  1  0.27310000  0.45500000  0.33800000  1.0 -0.4117394144
C  C86  1  0.51880000  0.39000000  0.44880000  1.0 -0.4117394144
C  C87  1  0.12900000  0.37870000  0.35400000  1.0 -0.0307056494
C  C88  1  0.08590000  0.31700000  0.35380000  1.0 -0.0012732537
C  C89  1  0.99520000  0.28950000  0.32370000  1.0 0.0076074656
C  C90  1  0.95790000  0.33280000  0.29900000  1.0 -0.0307056494
C  C91  1  0.00220000  0.39810000  0.29140000  1.0 -0.1626676759
C  C92  1  0.08640000  0.42720000  0.31870000  1.0 -0.0809250922
C  C93  1  0.86800000  0.30850000  0.27460000  1.0 0.3456907431
C  C94  1  0.25180000  0.51240000  0.45220000  1.0 -0.0596981279
C  C95  1  0.25160000  0.58420000  0.44580000  1.0 -0.1200079851
C  C96  1  0.26370000  0.65040000  0.49490000  1.0 -0.0989885406
C  C97  1  0.27460000  0.64530000  0.55040000  1.0 -0.0206994973
C  C98  1  0.27180000  0.57020000  0.55610000  1.0 -0.0989885406
C  C99  1  0.26030000  0.50530000  0.50740000  1.0 -0.1200079851
C  C100  1  0.28790000  0.71800000  0.60280000  1.0 0.565571771
C  C101  1  0.47830000  0.29780000  0.51920000  1.0 -0.0405762494
C  C102  1  0.43420000  0.29210000  0.55430000  1.0 -0.1200079851
C  C103  1  0.46570000  0.27450000  0.60550000  1.0 -0.0901840571
C  C104  1  0.54020000  0.26280000  0.62030000  1.0 -0.0106189172
C  C105  1  0.58350000  0.26990000  0.58590000  1.0 -0.0901840571
C  C106  1  0.55240000  0.28620000  0.53530000  1.0 -0.1266255966
C  C107  1  0.57350000  0.24320000  0.67490000  1.0 0.5788440117
C  C108  1  0.42530000  0.21470000  0.39770000  1.0 -0.0488334354
C  C109  1  0.47860000  0.19720000  0.37040000  1.0 -0.1104259569
C  C110  1  0.46700000  0.11770000  0.33610000  1.0 -0.0901840571
C  C111  1  0.40390000  0.05620000  0.33090000  1.0 -0.0106189172
C  C112  1  0.35040000  0.07290000  0.35980000  1.0 -0.0901840571
C  C113  1  0.36200000  0.15310000  0.39270000  1.0 -0.1104259569
C  C114  1  0.39080000  0.97020000  0.29440000  1.0 0.5788440117
C  C115  1  0.91120000  0.88900000  0.90590000  1.0 -0.2099192729
C  C116  1  0.94920000  0.84880000  0.86930000  1.0 0.1505307266
C  C117  1  0.99960000  0.89030000  0.84900000  1.0 -0.1626676759
C  C118  1  0.01430000  0.97240000  0.86260000  1.0 -0.0688088955
C  C119  1  0.97780000  0.01310000  0.89740000  1.0 -0.1626676759
C  C120  1  0.92630000  0.97250000  0.91890000  1.0 0.1505307266
C  C121  1  0.93010000  0.75870000  0.85250000  1.0 -0.4117394144
C  C122  1  0.88840000  0.01780000  0.95880000  1.0 -0.4030109635
C  C123  1  0.85490000  0.62720000  0.88620000  1.0 -0.0405762494
C  C124  1  0.83380000  0.59720000  0.92580000  1.0 -0.1104259569
C  C125  1  0.79980000  0.51540000  0.90990000  1.0 -0.0809250922
C  C126  1  0.78490000  0.46240000  0.85300000  1.0 -0.0307056494
C  C127  1  0.80820000  0.49320000  0.81480000  1.0 -0.0901840571
C  C128  1  0.84190000  0.57610000  0.83050000  1.0 -0.1266255966
C  C129  1  0.74880000  0.37450000  0.83700000  1.0 0.6105576465
C  C130  1  0.99480000  0.75440000  0.97260000  1.0 -0.0688088955
C  C131  1  0.06830000  0.75260000  0.96460000  1.0 -0.1104259569
C  C132  1  0.13910000  0.76830000  0.01400000  1.0 -0.1104259569
C  C133  1  0.13450000  0.78350000  0.06970000  1.0 -0.0106189172
C  C134  1  0.06320000  0.78390000  0.07740000  1.0 -0.0901840571
C  C135  1  0.99320000  0.77150000  0.02940000  1.0 -0.1104259569
C  C136  1  0.21200000  0.79710000  0.12160000  1.0 0.5940661887
C  C137  1  0.78880000  0.98780000  0.02890000  1.0 -0.0596981279
C  C138  1  0.76730000  0.93660000  0.05690000  1.0 -0.1104259569
C  C139  1  0.74880000  0.96730000  0.10750000  1.0 -0.0901840571
C  C140  1  0.75240000  0.04550000  0.12890000  1.0 -0.0106189172
C  C141  1  0.77710000  0.09770000  0.10210000  1.0 -0.0989885406
C  C142  1  0.79650000  0.06840000  0.05100000  1.0 -0.1200079851
C  C143  1  0.72500000  0.07270000  0.18140000  1.0 0.6105576465
C  C144  1  0.70790000  0.93680000  0.90530000  1.0 -0.0488334354
C  C145  1  0.69430000  0.99320000  0.87960000  1.0 -0.1104259569
C  C146  1  0.61640000  0.98410000  0.84080000  1.0 -0.0809250922
C  C147  1  0.55070000  0.91760000  0.82810000  1.0 -0.0206994973
C  C148  1  0.56560000  0.86070000  0.85340000  1.0 -0.0901840571
C  C149  1  0.64200000  0.86950000  0.89160000  1.0 -0.1104259569
C  C150  1  0.46690000  0.90850000  0.78830000  1.0 0.5966246584
C  C151  1  0.10430000  0.28760000  0.33190000  1.0 -0.1104259569
C  C152  1  0.02140000  0.24210000  0.31180000  1.0 -0.0596981279
C  C153  1  0.96700000  0.28500000  0.33120000  1.0 -0.0106189172
C  C154  1  0.98880000  0.36140000  0.35170000  1.0 -0.0307056494
C  C155  1  0.07260000  0.40990000  0.37240000  1.0 -0.0206994973
C  C156  1  0.87850000  0.23340000  0.31260000  1.0 0.407484577
Cl  Cl1  1  0.76057000  0.72407000  0.54387000  1.0 -0.3898800155
Cl  Cl2  1  0.24702000  0.25270000  0.02907000  1.0 -0.4421082726
Cl  Cl3  1  0.23943000  0.27593000  0.45613000  1.0 -0.3898800155
Cl  Cl4  1  0.75298000  0.74730000  0.97093000  1.0 -0.4421082726
O  O1  1  0.17160000  0.73530000  0.70210000  1.0 -0.3507993361
O  O2  1  0.16680000  0.65930000  0.76090000  1.0 -0.4283148786
O  O3  1  0.71090000  0.21810000  0.40510000  1.0 -0.5160105964
O  O4  1  0.70480000  0.29310000  0.34910000  1.0 -0.5620566299
O  O5  1  0.46160000  0.74690000  0.28830000  1.0 -0.5000656287
O  O6  1  0.36630000  0.78280000  0.32020000  1.0 -0.55302973
O  O7  1  0.67470000  0.08050000  0.71550000  1.0 -0.5620566299
O  O8  1  0.55330000  0.04500000  0.72260000  1.0 -0.5086866757
O  O9  1  0.79470000  0.20180000  0.83040000  1.0 -0.5388349931
O  O10  1  0.72350000  0.19370000  0.88920000  1.0 -0.5820372244
O  O11  1  0.25200000  0.67170000  0.20980000  1.0 -0.5325912675
O  O12  1  0.27520000  0.64700000  0.12580000  1.0 -0.6008427283
O  O13  1  0.57920000  0.16340000  0.23900000  1.0 -0.5620566299
O  O14  1  0.55220000  0.03120000  0.21390000  1.0 -0.5388349931
O  O15  1  0.28330000  0.97500000  0.79320000  1.0 -0.5388349931
O  O16  1  0.28820000  0.86030000  0.80780000  1.0 -0.5620566299
O  O17  1  0.27410000  0.87100000  0.68590000  1.0 -0.9781354806
O  O18  1  0.60820000  0.19780000  0.78690000  1.0 -0.9925293168
O  O19  1  0.13460000  0.84050000  0.69350000  1.0 -0.4157559713
O  O20  1  0.82840000  0.26470000  0.29790000  1.0 -0.3555928906
O  O21  1  0.83320000  0.34070000  0.23910000  1.0 -0.4283148786
O  O22  1  0.28910000  0.78190000  0.59490000  1.0 -0.5160105964
O  O23  1  0.29520000  0.70690000  0.65090000  1.0 -0.5620566299
O  O24  1  0.53840000  0.25310000  0.71170000  1.0 -0.5000656287
O  O25  1  0.63370000  0.21720000  0.67980000  1.0 -0.55302973
O  O26  1  0.32530000  0.91950000  0.28450000  1.0 -0.5620566299
O  O27  1  0.44670000  0.95500000  0.27740000  1.0 -0.5000656287
O  O28  1  0.20530000  0.79820000  0.16960000  1.0 -0.5388349931
O  O29  1  0.27650000  0.80630000  0.11080000  1.0 -0.5820372244
O  O30  1  0.74800000  0.32830000  0.79020000  1.0 -0.5325912675
O  O31  1  0.72480000  0.35300000  0.87420000  1.0 -0.6008427283
O  O32  1  0.42080000  0.83660000  0.76100000  1.0 -0.5620566299
O  O33  1  0.44780000  0.96880000  0.78610000  1.0 -0.5388349931
O  O34  1  0.71670000  0.02500000  0.20680000  1.0 -0.5388349931
O  O35  1  0.71180000  0.13970000  0.19220000  1.0 -0.5620566299
O  O36  1  0.72590000  0.12900000  0.31410000  1.0 -0.9781354806
O  O37  1  0.39180000  0.80220000  0.21310000  1.0 -0.9925293168
O  O38  1  0.86540000  0.15950000  0.30650000  1.0 -0.4117394144
