# DDEC6 charges by PACMAN v1.1 (https://github.com/mtap-research/PACMAN-charge/)
data_XENCAU_ASR_pacman
_symmetry_space_group_name_H-M   'P 1'
_cell_length_a   18.96670000
_cell_length_b   18.96670000
_cell_length_c   18.96670000
_cell_angle_alpha   107.92200000
_cell_angle_beta   107.92200000
_cell_angle_gamma   112.61500000
_symmetry_Int_Tables_number   1
_chemical_formula_structural   CoH28(C5N2)4
_chemical_formula_sum   'Co4 H112 C80 N32'
_cell_volume   5240.48928659
_cell_formula_units_Z   4
loop_
 _symmetry_equiv_pos_site_id
 _symmetry_equiv_pos_as_xyz
  1  'x, y, z'
loop_
 _atom_site_type_symbol
 _atom_site_label
 _atom_site_symmetry_multiplicity
 _atom_site_fract_x
 _atom_site_fract_y
 _atom_site_fract_z
 _atom_site_occupancy
 _atom_site_charge
Co  Co1  1  0.62500000  0.37500000  0.75000000  1.0 0.2094462029
Co  Co2  1  0.12500000  0.37500000  0.75000000  1.0 0.2094462029
Co  Co3  1  0.62500000  0.37500000  0.25000000  1.0 0.2094462029
Co  Co4  1  0.62500000  0.87500000  0.25000000  1.0 0.2094462029
H  H1  1  0.74790000  0.55210000  0.77340000  1.0 0.2725267448
H  H2  1  0.22450000  0.49790000  0.69580000  1.0 0.2725267448
H  H3  1  0.80210000  0.52870000  0.30420000  1.0 0.2725267448
H  H4  1  0.47130000  0.77550000  0.27340000  1.0 0.2725267448
H  H5  1  0.44790000  0.22130000  0.19580000  1.0 0.2725267448
H  H6  1  0.50210000  0.19790000  0.72660000  1.0 0.2725267448
H  H7  1  0.02550000  0.25210000  0.80420000  1.0 0.2725267448
H  H8  1  0.77870000  0.97450000  0.22660000  1.0 0.2725267448
H  H9  1  0.59650000  0.19440000  0.66930000  1.0 0.2629015707
H  H10  1  0.17720000  0.34650000  0.90210000  1.0 0.2629015707
H  H11  1  0.44440000  0.27510000  0.09790000  1.0 0.2629015707
H  H12  1  0.72490000  0.82280000  0.16930000  1.0 0.2629015707
H  H13  1  0.80560000  0.47490000  0.40210000  1.0 0.2629015707
H  H14  1  0.65350000  0.55560000  0.83070000  1.0 0.2629015707
H  H15  1  0.07280000  0.40350000  0.59790000  1.0 0.2629015707
H  H16  1  0.52510000  0.92720000  0.33070000  1.0 0.2629015707
H  H17  1  0.82620000  0.67880000  0.75280000  1.0 0.1146048419
H  H18  1  0.32340000  0.57620000  0.64740000  1.0 0.1146048419
H  H19  1  0.92880000  0.67600000  0.35260000  1.0 0.1146048419
H  H20  1  0.32400000  0.67660000  0.25280000  1.0 0.1146048419
H  H21  1  0.32120000  0.07400000  0.14740000  1.0 0.1146048419
H  H22  1  0.42380000  0.07120000  0.74720000  1.0 0.1146048419
H  H23  1  0.92660000  0.17380000  0.85260000  1.0 0.1146048419
H  H24  1  0.92600000  0.07340000  0.24720000  1.0 0.1146048419
H  H25  1  0.78050000  0.65310000  0.65700000  1.0 0.1284227464
H  H26  1  0.37350000  0.53050000  0.62740000  1.0 0.1284227464
H  H27  1  0.90310000  0.74610000  0.37260000  1.0 0.1284227464
H  H28  1  0.25390000  0.62650000  0.15700000  1.0 0.1284227464
H  H29  1  0.34690000  0.00390000  0.12740000  1.0 0.1284227464
H  H30  1  0.46950000  0.09690000  0.84300000  1.0 0.1284227464
H  H31  1  0.87650000  0.21950000  0.87260000  1.0 0.1284227464
H  H32  1  0.99610000  0.12350000  0.34300000  1.0 0.1284227464
H  H33  1  0.86900000  0.65800000  0.69700000  1.0 0.1284227464
H  H34  1  0.42200000  0.61900000  0.71100000  1.0 0.1284227464
H  H35  1  0.90800000  0.71100000  0.28900000  1.0 0.1284227464
H  H36  1  0.28900000  0.57800000  0.19700000  1.0 0.1284227464
H  H37  1  0.34200000  0.03900000  0.21100000  1.0 0.1284227464
H  H38  1  0.38100000  0.09200000  0.80300000  1.0 0.1284227464
H  H39  1  0.82800000  0.13100000  0.78900000  1.0 0.1284227464
H  H40  1  0.96100000  0.17200000  0.30300000  1.0 0.1284227464
H  H41  1  0.62620000  0.27620000  0.58100000  1.0 0.1238418259
H  H42  1  0.29520000  0.37620000  0.85000000  1.0 0.1238418259
H  H43  1  0.52620000  0.44520000  0.15000000  1.0 0.1238418259
H  H44  1  0.55480000  0.70480000  0.08100000  1.0 0.1238418259
H  H45  1  0.72380000  0.30480000  0.35000000  1.0 0.1238418259
H  H46  1  0.62380000  0.47380000  0.91900000  1.0 0.1238418259
H  H47  1  0.95480000  0.37380000  0.65000000  1.0 0.1238418259
H  H48  1  0.69520000  0.04520000  0.41900000  1.0 0.1238418259
H  H49  1  0.69610000  0.30130000  0.55100000  1.0 0.1384408139
H  H50  1  0.39510000  0.44610000  0.89480000  1.0 0.1384408139
H  H51  1  0.55130000  0.50030000  0.10520000  1.0 0.1384408139
H  H52  1  0.49970000  0.60490000  0.05100000  1.0 0.1384408139
H  H53  1  0.69870000  0.24970000  0.39480000  1.0 0.1384408139
H  H54  1  0.55390000  0.44870000  0.94900000  1.0 0.1384408139
H  H55  1  0.85490000  0.30390000  0.60520000  1.0 0.1384408139
H  H56  1  0.75030000  0.14510000  0.44900000  1.0 0.1384408139
H  H57  1  0.60740000  0.29340000  0.50360000  1.0 0.1384408139
H  H58  1  0.35380000  0.35740000  0.81400000  1.0 0.1384408139
H  H59  1  0.54340000  0.53980000  0.18600000  1.0 0.1384408139
H  H60  1  0.46020000  0.64620000  0.00360000  1.0 0.1384408139
H  H61  1  0.70660000  0.21020000  0.31400000  1.0 0.1384408139
H  H62  1  0.64260000  0.45660000  0.99640000  1.0 0.1384408139
H  H63  1  0.89620000  0.39260000  0.68600000  1.0 0.1384408139
H  H64  1  0.78980000  0.10380000  0.49640000  1.0 0.1384408139
H  H65  1  0.82520000  0.45770000  0.84130000  1.0 0.1384408139
H  H66  1  0.23390000  0.57520000  0.86750000  1.0 0.1384408139
H  H67  1  0.70770000  0.36640000  0.13250000  1.0 0.1384408139
H  H68  1  0.63360000  0.76610000  0.34130000  1.0 0.1384408139
H  H69  1  0.54230000  0.38360000  0.36750000  1.0 0.1384408139
H  H70  1  0.42480000  0.29230000  0.65870000  1.0 0.1384408139
H  H71  1  0.01610000  0.17480000  0.63250000  1.0 0.1384408139
H  H72  1  0.61640000  0.98390000  0.15870000  1.0 0.1384408139
H  H73  1  0.88870000  0.42740000  0.87390000  1.0 0.1475744868
H  H74  1  0.26480000  0.63870000  0.96130000  1.0 0.1475744868
H  H75  1  0.67740000  0.30350000  0.03870000  1.0 0.1475744868
H  H76  1  0.69650000  0.73520000  0.37390000  1.0 0.1475744868
H  H77  1  0.57260000  0.44650000  0.46130000  1.0 0.1475744868
H  H78  1  0.36130000  0.32260000  0.62610000  1.0 0.1475744868
H  H79  1  0.98520000  0.11130000  0.53870000  1.0 0.1475744868
H  H80  1  0.55350000  0.01480000  0.12610000  1.0 0.1475744868
H  H81  1  0.87970000  0.44440000  0.79670000  1.0 0.1384408139
H  H82  1  0.33300000  0.62970000  0.93530000  1.0 0.1384408139
H  H83  1  0.69440000  0.39770000  0.06470000  1.0 0.1384408139
H  H84  1  0.60230000  0.66700000  0.29670000  1.0 0.1384408139
H  H85  1  0.55560000  0.35230000  0.43530000  1.0 0.1384408139
H  H86  1  0.37030000  0.30560000  0.70330000  1.0 0.1384408139
H  H87  1  0.91700000  0.12030000  0.56470000  1.0 0.1384408139
H  H88  1  0.64770000  0.08300000  0.20330000  1.0 0.1384408139
H  H89  1  0.60280000  0.06180000  0.59460000  1.0 0.1384408139
H  H90  1  0.25820000  0.35280000  0.04100000  1.0 0.1384408139
H  H91  1  0.31180000  0.21720000  0.95900000  1.0 0.1384408139
H  H92  1  0.78280000  0.74180000  0.09460000  1.0 0.1384408139
H  H93  1  0.93820000  0.53280000  0.54100000  1.0 0.1384408139
H  H94  1  0.64720000  0.68820000  0.90540000  1.0 0.1384408139
H  H95  1  0.99180000  0.39720000  0.45900000  1.0 0.1384408139
H  H96  1  0.46720000  0.00820000  0.40540000  1.0 0.1384408139
H  H97  1  0.68240000  0.08950000  0.57750000  1.0 0.1384408139
H  H98  1  0.35490000  0.43240000  0.09290000  1.0 0.1384408139
H  H99  1  0.33950000  0.26200000  0.90710000  1.0 0.1384408139
H  H100  1  0.73800000  0.64510000  0.07750000  1.0 0.1384408139
H  H101  1  0.91050000  0.48800000  0.59290000  1.0 0.1384408139
H  H102  1  0.56760000  0.66050000  0.92250000  1.0 0.1384408139
H  H103  1  0.89510000  0.31760000  0.40710000  1.0 0.1384408139
H  H104  1  0.51200000  0.10490000  0.42250000  1.0 0.1384408139
H  H105  1  0.68880000  0.07220000  0.65420000  1.0 0.1475744868
H  H106  1  0.28460000  0.43880000  0.11660000  1.0 0.1475744868
H  H107  1  0.32220000  0.16800000  0.88340000  1.0 0.1475744868
H  H108  1  0.83200000  0.71540000  0.15420000  1.0 0.1475744868
H  H109  1  0.92780000  0.58200000  0.61660000  1.0 0.1475744868
H  H110  1  0.56120000  0.67780000  0.84580000  1.0 0.1475744868
H  H111  1  0.96540000  0.31120000  0.38340000  1.0 0.1475744868
H  H112  1  0.41800000  0.03460000  0.34580000  1.0 0.1475744868
C  C1  1  0.69100000  0.40480000  0.61500000  1.0 0.1908926703
C  C2  1  0.32600000  0.44100000  0.78620000  1.0 0.1908926703
C  C3  1  0.65480000  0.53980000  0.21380000  1.0 0.1908926703
C  C4  1  0.46020000  0.67400000  0.11500000  1.0 0.1908926703
C  C5  1  0.59520000  0.21020000  0.28620000  1.0 0.1908926703
C  C6  1  0.55900000  0.34520000  0.88500000  1.0 0.1908926703
C  C7  1  0.92400000  0.30900000  0.71380000  1.0 0.1908926703
C  C8  1  0.78980000  0.07600000  0.38500000  1.0 0.1908926703
C  C9  1  0.73460000  0.47410000  0.60190000  1.0 -0.1179306237
C  C10  1  0.38270000  0.48460000  0.76050000  1.0 -0.1179306237
C  C11  1  0.72410000  0.62220000  0.23950000  1.0 -0.1179306237
C  C12  1  0.37780000  0.61730000  0.10190000  1.0 -0.1179306237
C  C13  1  0.52590000  0.12780000  0.26050000  1.0 -0.1179306237
C  C14  1  0.51540000  0.27590000  0.89810000  1.0 -0.1179306237
C  C15  1  0.86730000  0.26540000  0.73950000  1.0 -0.1179306237
C  C16  1  0.87220000  0.13270000  0.39810000  1.0 -0.1179306237
C  C17  1  0.76470000  0.54970000  0.67400000  1.0 0.1622554138
C  C18  1  0.34070000  0.51470000  0.71500000  1.0 0.1622554138
C  C19  1  0.79970000  0.62570000  0.28500000  1.0 0.1622554138
C  C20  1  0.37430000  0.65930000  0.17400000  1.0 0.1622554138
C  C21  1  0.45030000  0.12430000  0.21500000  1.0 0.1622554138
C  C22  1  0.48530000  0.20030000  0.82600000  1.0 0.1622554138
C  C23  1  0.90930000  0.23530000  0.78500000  1.0 0.1622554138
C  C24  1  0.87570000  0.09070000  0.32600000  1.0 0.1622554138
C  C25  1  0.81480000  0.64320000  0.69740000  1.0 -0.4473653771
C  C26  1  0.36740000  0.56480000  0.67160000  1.0 -0.4473653771
C  C27  1  0.89320000  0.69580000  0.32840000  1.0 -0.4473653771
C  C28  1  0.30420000  0.63260000  0.19740000  1.0 -0.4473653771
C  C29  1  0.35680000  0.05420000  0.17160000  1.0 -0.4473653771
C  C30  1  0.43520000  0.10680000  0.80260000  1.0 -0.4473653771
C  C31  1  0.88260000  0.18520000  0.82840000  1.0 -0.4473653771
C  C32  1  0.94580000  0.11740000  0.30260000  1.0 -0.4473653771
C  C33  1  0.65180000  0.31050000  0.55770000  1.0 -0.5091299974
C  C34  1  0.34410000  0.40180000  0.84130000  1.0 -0.5091299974
C  C35  1  0.56050000  0.50280000  0.15870000  1.0 -0.5091299974
C  C36  1  0.49720000  0.65590000  0.05770000  1.0 -0.5091299974
C  C37  1  0.68950000  0.24720000  0.34130000  1.0 -0.5091299974
C  C38  1  0.59820000  0.43950000  0.94230000  1.0 -0.5091299974
C  C39  1  0.90590000  0.34820000  0.65870000  1.0 -0.5091299974
C  C40  1  0.75280000  0.09410000  0.44230000  1.0 -0.5091299974
C  C41  1  0.81190000  0.48980000  0.51250000  1.0 0.1475744868
C  C42  1  0.54940000  0.56190000  0.82210000  1.0 0.1475744868
C  C43  1  0.73980000  0.72730000  0.17790000  1.0 0.1475744868
C  C44  1  0.27270000  0.45060000  0.01250000  1.0 0.1475744868
C  C45  1  0.51020000  0.02270000  0.32210000  1.0 0.1475744868
C  C46  1  0.43810000  0.26020000  0.98750000  1.0 0.1475744868
C  C47  1  0.70060000  0.18810000  0.67790000  1.0 0.1475744868
C  C48  1  0.97730000  0.29940000  0.48750000  1.0 0.1475744868
C  C49  1  0.74050000  0.46760000  0.52430000  1.0 -0.1179306237
C  C50  1  0.46620000  0.49050000  0.77290000  1.0 -0.1179306237
C  C51  1  0.71760000  0.69330000  0.22710000  1.0 -0.1179306237
C  C52  1  0.30670000  0.53380000  0.02430000  1.0 -0.1179306237
C  C53  1  0.53240000  0.05670000  0.27290000  1.0 -0.1179306237
C  C54  1  0.50950000  0.28240000  0.97570000  1.0 -0.1179306237
C  C55  1  0.78380000  0.25950000  0.72710000  1.0 -0.1179306237
C  C56  1  0.94330000  0.21620000  0.47570000  1.0 -0.1179306237
C  C57  1  0.77640000  0.33110000  0.76510000  1.0 0.1983087696
C  C58  1  0.26130000  0.52640000  0.94530000  1.0 0.1983087696
C  C59  1  0.58110000  0.31600000  0.05470000  1.0 0.1983087696
C  C60  1  0.68400000  0.73870000  0.26510000  1.0 0.1983087696
C  C61  1  0.66890000  0.43400000  0.44530000  1.0 0.1983087696
C  C62  1  0.47360000  0.41890000  0.73490000  1.0 0.1983087696
C  C63  1  0.98870000  0.22360000  0.55470000  1.0 0.1983087696
C  C64  1  0.56600000  0.01130000  0.23490000  1.0 0.1983087696
C  C65  1  0.84910000  0.42330000  0.82460000  1.0 -0.4697849341
C  C66  1  0.27450000  0.59910000  0.92580000  1.0 -0.4697849341
C  C67  1  0.67330000  0.34870000  0.07420000  1.0 -0.4697849341
C  C68  1  0.65130000  0.72550000  0.32460000  1.0 -0.4697849341
C  C69  1  0.57670000  0.40130000  0.42580000  1.0 -0.4697849341
C  C70  1  0.40090000  0.32670000  0.67540000  1.0 -0.4697849341
C  C71  1  0.97550000  0.15090000  0.57420000  1.0 -0.4697849341
C  C72  1  0.59870000  0.02450000  0.17540000  1.0 -0.4697849341
C  C73  1  0.66540000  0.09460000  0.62060000  1.0 -0.4697849341
C  C74  1  0.29480000  0.41540000  0.07080000  1.0 -0.4697849341
C  C75  1  0.34460000  0.22400000  0.92920000  1.0 -0.4697849341
C  C76  1  0.77600000  0.70520000  0.12060000  1.0 -0.4697849341
C  C77  1  0.90540000  0.52600000  0.57080000  1.0 -0.4697849341
C  C78  1  0.58460000  0.65540000  0.87940000  1.0 -0.4697849341
C  C79  1  0.95520000  0.33460000  0.42920000  1.0 -0.4697849341
C  C80  1  0.47400000  0.04480000  0.37940000  1.0 -0.4697849341
N  N1  1  0.69193000  0.43472000  0.68965000  1.0 -0.2410767935
N  N2  1  0.25228000  0.44193000  0.75721000  1.0 -0.2410767935
N  N3  1  0.68472000  0.49507000  0.24279000  1.0 -0.2410767935
N  N4  1  0.50493000  0.74772000  0.18965000  1.0 -0.2410767935
N  N5  1  0.56528000  0.25493000  0.25721000  1.0 -0.2410767935
N  N6  1  0.55807000  0.31528000  0.81035000  1.0 -0.2410767935
N  N7  1  0.99772000  0.30807000  0.74279000  1.0 -0.2410767935
N  N8  1  0.74507000  0.00228000  0.31035000  1.0 -0.2410767935
N  N9  1  0.73770000  0.52310000  0.72400000  1.0 -0.1770221
N  N10  1  0.26370000  0.48770000  0.71460000  1.0 -0.1770221
N  N11  1  0.77310000  0.54910000  0.28540000  1.0 -0.1770221
N  N12  1  0.45090000  0.73630000  0.22400000  1.0 -0.1770221
N  N13  1  0.47690000  0.20090000  0.21460000  1.0 -0.1770221
N  N14  1  0.51230000  0.22690000  0.77600000  1.0 -0.1770221
N  N15  1  0.98630000  0.26230000  0.78540000  1.0 -0.1770221
N  N16  1  0.79910000  0.01370000  0.27600000  1.0 -0.1700394315
N  N17  1  0.69622000  0.43761000  0.38823000  1.0 -0.2410767935
N  N18  1  0.55799000  0.44622000  0.75861000  1.0 -0.2410767935
N  N19  1  0.68761000  0.79938000  0.24139000  1.0 -0.2410767935
N  N20  1  0.20062000  0.44201000  0.88823000  1.0 -0.2410767935
N  N21  1  0.56239000  0.95062000  0.25861000  1.0 -0.2410767935
N  N22  1  0.55378000  0.31239000  0.11177000  1.0 -0.2410767935
N  N23  1  0.69201000  0.30378000  0.74139000  1.0 -0.2410767935
N  N24  1  0.04938000  0.30799000  0.61177000  1.0 -0.2410767935
N  N25  1  0.78350000  0.47190000  0.43100000  1.0 -0.1700394315
N  N26  1  0.60250000  0.53350000  0.81160000  1.0 -0.1700394315
N  N27  1  0.72190000  0.79090000  0.18840000  1.0 -0.1700394315
N  N28  1  0.20910000  0.39750000  0.93100000  1.0 -0.1700394315
N  N29  1  0.52810000  0.95910000  0.31160000  1.0 -0.1700394315
N  N30  1  0.46650000  0.27810000  0.06900000  1.0 -0.1700394315
N  N31  1  0.64750000  0.21650000  0.68840000  1.0 -0.1700394315
N  N32  1  0.04090000  0.35250000  0.56900000  1.0 -0.1700394315
