# DDEC6 charges by PACMAN v1.1 (https://github.com/mtap-research/PACMAN-charge/)
data_XENZEX_FSR_pacman
_symmetry_space_group_name_H-M   'P 1'
_cell_length_a   12.32450000
_cell_length_b   12.32450000
_cell_length_c   5.96100000
_cell_angle_alpha   90.00000000
_cell_angle_beta   90.00000000
_cell_angle_gamma   90.00000000
_symmetry_Int_Tables_number   1
_chemical_formula_structural   Cu3H8C11(SN2)2
_chemical_formula_sum   'Cu12 H32 C44 S8 N16'
_cell_volume   905.43596279
_cell_formula_units_Z   4
loop_
 _symmetry_equiv_pos_site_id
 _symmetry_equiv_pos_as_xyz
  1  'x, y, z'
loop_
 _atom_site_type_symbol
 _atom_site_label
 _atom_site_symmetry_multiplicity
 _atom_site_fract_x
 _atom_site_fract_y
 _atom_site_fract_z
 _atom_site_occupancy
 _atom_site_charge
Cu  Cu1  1  0.12645000  0.65916000  0.45449000  1.0 0.2775936775
Cu  Cu2  1  0.87355000  0.34084000  0.45449000  1.0 0.2775936775
Cu  Cu3  1  0.65916000  0.87355000  0.95449000  1.0 0.2775936775
Cu  Cu4  1  0.34084000  0.12645000  0.95449000  1.0 0.2775936775
Cu  Cu5  1  0.02542000  0.86395000  0.58787000  1.0 0.1570288591
Cu  Cu6  1  0.97458000  0.13605000  0.58787000  1.0 0.1570288591
Cu  Cu7  1  0.86395000  0.97458000  0.08787000  1.0 0.1570288591
Cu  Cu8  1  0.13605000  0.02542000  0.08787000  1.0 0.1570288591
Cu  Cu9  1  0.02400000  0.86310000  0.33520000  1.0 0.1405261248
Cu  Cu10  1  0.97600000  0.13690000  0.33520000  1.0 0.1405261248
Cu  Cu11  1  0.86310000  0.97600000  0.83520000  1.0 0.1405261248
Cu  Cu12  1  0.13690000  0.02400000  0.83520000  1.0 0.1405261248
H  H1  1  0.11720000  0.44810000  0.64870000  1.0 0.0727766693
H  H2  1  0.88280000  0.55190000  0.64870000  1.0 0.0727766693
H  H3  1  0.44810000  0.88280000  0.14870000  1.0 0.0727766693
H  H4  1  0.55190000  0.11720000  0.14870000  1.0 0.0727766693
H  H5  1  0.19200000  0.27330000  0.65690000  1.0 0.0628773623
H  H6  1  0.80800000  0.72670000  0.65690000  1.0 0.0628773623
H  H7  1  0.27330000  0.80800000  0.15690000  1.0 0.0628773623
H  H8  1  0.72670000  0.19200000  0.15690000  1.0 0.0628773623
H  H9  1  0.29400000  0.31770000  0.26480000  1.0 0.0513234978
H  H10  1  0.70600000  0.68230000  0.26480000  1.0 0.0513234978
H  H11  1  0.31770000  0.70600000  0.76480000  1.0 0.0513234978
H  H12  1  0.68230000  0.29400000  0.76480000  1.0 0.0513234978
H  H13  1  0.11870000  0.44480000  0.26800000  1.0 0.0727766693
H  H14  1  0.88130000  0.55520000  0.26800000  1.0 0.0727766693
H  H15  1  0.44480000  0.88130000  0.76800000  1.0 0.0727766693
H  H16  1  0.55520000  0.11870000  0.76800000  1.0 0.0727766693
H  H17  1  0.21770000  0.49020000  0.63760000  1.0 0.0628773623
H  H18  1  0.78230000  0.50980000  0.63760000  1.0 0.0628773623
H  H19  1  0.49020000  0.78230000  0.13760000  1.0 0.0628773623
H  H20  1  0.50980000  0.21770000  0.13760000  1.0 0.0628773623
H  H21  1  0.29480000  0.32130000  0.64630000  1.0 0.0628773623
H  H22  1  0.70520000  0.67870000  0.64630000  1.0 0.0628773623
H  H23  1  0.32130000  0.70520000  0.14630000  1.0 0.0628773623
H  H24  1  0.67870000  0.29480000  0.14630000  1.0 0.0628773623
H  H25  1  0.20350000  0.28470000  0.26270000  1.0 0.0513234978
H  H26  1  0.79650000  0.71530000  0.26270000  1.0 0.0513234978
H  H27  1  0.28470000  0.79650000  0.76270000  1.0 0.0513234978
H  H28  1  0.71530000  0.20350000  0.76270000  1.0 0.0513234978
H  H29  1  0.21560000  0.49170000  0.27960000  1.0 0.0628773623
H  H30  1  0.78440000  0.50830000  0.27960000  1.0 0.0628773623
H  H31  1  0.49170000  0.78440000  0.77960000  1.0 0.0628773623
H  H32  1  0.50830000  0.21560000  0.77960000  1.0 0.0628773623
C  C1  1  0.05600000  0.75580000  0.05650000  1.0 -0.038048844
C  C2  1  0.94400000  0.24420000  0.05650000  1.0 -0.038048844
C  C3  1  0.75580000  0.94400000  0.55650000  1.0 -0.038048844
C  C4  1  0.24420000  0.05600000  0.55650000  1.0 -0.038048844
C  C5  1  0.11500000  0.59950000  0.95200000  1.0 0.1083105333
C  C6  1  0.88500000  0.40050000  0.95200000  1.0 0.1083105333
C  C7  1  0.59950000  0.88500000  0.45200000  1.0 0.1083105333
C  C8  1  0.40050000  0.11500000  0.45200000  1.0 0.1083105333
C  C9  1  0.16030000  0.48910000  0.95560000  1.0 0.0307918927
C  C10  1  0.83970000  0.51090000  0.95560000  1.0 0.0307918927
C  C11  1  0.48910000  0.83970000  0.45560000  1.0 0.0307918927
C  C12  1  0.51090000  0.16030000  0.45560000  1.0 0.0307918927
C  C13  1  0.15300000  0.42420000  0.77700000  1.0 -0.0501404873
C  C14  1  0.84700000  0.57580000  0.77700000  1.0 -0.0501404873
C  C15  1  0.42420000  0.84700000  0.27700000  1.0 -0.0501404873
C  C16  1  0.57580000  0.15300000  0.27700000  1.0 -0.0501404873
C  C17  1  0.19990000  0.31830000  0.78110000  1.0 0.0307918927
C  C18  1  0.80010000  0.68170000  0.78110000  1.0 0.0307918927
C  C19  1  0.31830000  0.80010000  0.28110000  1.0 0.0307918927
C  C20  1  0.68170000  0.19990000  0.28110000  1.0 0.0307918927
C  C21  1  0.25880000  0.34440000  0.13800000  1.0 0.022034425
C  C22  1  0.74120000  0.65560000  0.13800000  1.0 0.022034425
C  C23  1  0.34440000  0.74120000  0.63800000  1.0 0.022034425
C  C24  1  0.65560000  0.25880000  0.63800000  1.0 0.022034425
C  C25  1  0.15550000  0.42290000  0.13960000  1.0 -0.0578150194
C  C26  1  0.84450000  0.57710000  0.13960000  1.0 -0.0578150194
C  C27  1  0.42290000  0.84450000  0.63960000  1.0 -0.0578150194
C  C28  1  0.57710000  0.15550000  0.63960000  1.0 -0.0578150194
C  C29  1  0.21330000  0.44850000  0.76700000  1.0 -0.0672963805
C  C30  1  0.78670000  0.55150000  0.76700000  1.0 -0.0672963805
C  C31  1  0.44850000  0.78670000  0.26700000  1.0 -0.0672963805
C  C32  1  0.55150000  0.21330000  0.26700000  1.0 -0.0672963805
C  C33  1  0.25920000  0.34680000  0.77300000  1.0 0.0026411113
C  C34  1  0.74080000  0.65320000  0.77300000  1.0 0.0026411113
C  C35  1  0.34680000  0.74080000  0.27300000  1.0 0.0026411113
C  C36  1  0.65320000  0.25920000  0.27300000  1.0 0.0026411113
C  C37  1  0.20470000  0.32570000  0.13200000  1.0 0.0307918927
C  C38  1  0.79530000  0.67430000  0.13200000  1.0 0.0307918927
C  C39  1  0.32570000  0.79530000  0.63200000  1.0 0.0307918927
C  C40  1  0.67430000  0.20470000  0.63200000  1.0 0.0307918927
C  C41  1  0.21200000  0.45030000  0.14900000  1.0 -0.0578150194
C  C42  1  0.78800000  0.54970000  0.14900000  1.0 -0.0578150194
C  C43  1  0.45030000  0.78800000  0.64900000  1.0 -0.0578150194
C  C44  1  0.54970000  0.21200000  0.64900000  1.0 -0.0578150194
S  S1  1  0.02343000  0.86909000  0.20870000  1.0 -0.0501404873
S  S2  1  0.97657000  0.13091000  0.20870000  1.0 -0.0501404873
S  S3  1  0.86909000  0.97657000  0.70870000  1.0 -0.038048844
S  S4  1  0.13091000  0.02343000  0.70870000  1.0 -0.0501404873
S  S5  1  0.02250000  0.87080000  0.71600000  1.0 -0.0101691549
S  S6  1  0.97750000  0.12920000  0.71600000  1.0 -0.0101691549
S  S7  1  0.87080000  0.97750000  0.21600000  1.0 -0.0101691549
S  S8  1  0.12920000  0.02250000  0.21600000  1.0 -0.0101691549
N  N1  1  0.05310000  0.75450000  0.83270000  1.0 -0.1202856026
N  N2  1  0.94690000  0.24550000  0.83270000  1.0 -0.1202856026
N  N3  1  0.75450000  0.94690000  0.33270000  1.0 -0.1202856026
N  N4  1  0.24550000  0.05310000  0.33270000  1.0 -0.1202856026
N  N5  1  0.25460000  0.28240000  0.95770000  1.0 -0.1796929337
N  N6  1  0.74540000  0.71760000  0.95770000  1.0 -0.1796929337
N  N7  1  0.28240000  0.74540000  0.45770000  1.0 -0.1796929337
N  N8  1  0.71760000  0.25460000  0.45770000  1.0 -0.1796929337
N  N9  1  0.09390000  0.65430000  0.76560000  1.0 -0.289718794
N  N10  1  0.90610000  0.34570000  0.76560000  1.0 -0.289718794
N  N11  1  0.65430000  0.90610000  0.26560000  1.0 -0.289718794
N  N12  1  0.34570000  0.09390000  0.26560000  1.0 -0.289718794
N  N13  1  0.09340000  0.65910000  0.13850000  1.0 -0.3821203805
N  N14  1  0.90660000  0.34090000  0.13850000  1.0 -0.3821203805
N  N15  1  0.65910000  0.90660000  0.63850000  1.0 -0.3821203805
N  N16  1  0.34090000  0.09340000  0.63850000  1.0 -0.3821203805
