# DDEC6 charges by PACMAN v1.1 (https://github.com/mtap-research/PACMAN-charge/)
data_XESKIR_FSR_pacman
_symmetry_space_group_name_H-M   'P 1'
_cell_length_a   16.63990000
_cell_length_b   16.63990000
_cell_length_c   16.63990000
_cell_angle_alpha   118.36900000
_cell_angle_beta   118.36900000
_cell_angle_gamma   118.36900000
_symmetry_Int_Tables_number   1
_chemical_formula_structural   MnPC3NO4
_chemical_formula_sum   'Mn6 P6 C18 N6 O24'
_cell_volume   1515.24088579
_cell_formula_units_Z   6
loop_
 _symmetry_equiv_pos_site_id
 _symmetry_equiv_pos_as_xyz
  1  'x, y, z'
loop_
 _atom_site_type_symbol
 _atom_site_label
 _atom_site_symmetry_multiplicity
 _atom_site_fract_x
 _atom_site_fract_y
 _atom_site_fract_z
 _atom_site_occupancy
 _atom_site_charge
Mn  Mn1  1  0.47351000  0.05194000  0.71765000  1.0 1.0609053543
Mn  Mn2  1  0.05194000  0.71765000  0.47351000  1.0 1.0609053543
Mn  Mn3  1  0.71765000  0.47351000  0.05194000  1.0 1.0609053543
Mn  Mn4  1  0.52649000  0.94806000  0.28235000  1.0 1.0609053543
Mn  Mn5  1  0.94806000  0.28235000  0.52649000  1.0 1.0609053543
Mn  Mn6  1  0.28235000  0.52649000  0.94806000  1.0 1.0609053543
P  P1  1  0.21724000  0.02497000  0.56880000  1.0 1.2924225897
P  P2  1  0.02497000  0.56880000  0.21724000  1.0 1.2924225897
P  P3  1  0.56880000  0.21724000  0.02497000  1.0 1.2924225897
P  P4  1  0.78276000  0.97503000  0.43120000  1.0 1.2924225897
P  P5  1  0.97503000  0.43120000  0.78276000  1.0 1.2924225897
P  P6  1  0.43120000  0.78276000  0.97503000  1.0 1.2924225897
C  C1  1  0.29929000  0.19520000  0.75425000  1.0 -0.339923201
C  C2  1  0.19520000  0.75425000  0.29929000  1.0 -0.3331260065
C  C3  1  0.75425000  0.29929000  0.19520000  1.0 -0.3331260065
C  C4  1  0.70071000  0.80480000  0.24575000  1.0 -0.3331260065
C  C5  1  0.80480000  0.24575000  0.70071000  1.0 -0.3331260065
C  C6  1  0.24575000  0.70071000  0.80480000  1.0 -0.3331260065
C  C7  1  0.55247000  0.51590000  0.11283000  1.0 0.213771159
C  C8  1  0.51590000  0.11283000  0.55247000  1.0 0.213771159
C  C9  1  0.11283000  0.55247000  0.51590000  1.0 0.213771159
C  C10  1  0.44753000  0.48410000  0.88717000  1.0 0.213771159
C  C11  1  0.48410000  0.88717000  0.44753000  1.0 0.213771159
C  C12  1  0.88717000  0.44753000  0.48410000  1.0 0.213771159
C  C13  1  0.60759000  0.55139000  0.00962000  1.0 0.1089741484
C  C14  1  0.55139000  0.00962000  0.60759000  1.0 0.1089741484
C  C15  1  0.00962000  0.60759000  0.55139000  1.0 0.1089741484
C  C16  1  0.39241000  0.44861000  0.99038000  1.0 0.1089741484
C  C17  1  0.44861000  0.99038000  0.39241000  1.0 0.1089741484
C  C18  1  0.99038000  0.39241000  0.44861000  1.0 0.1089741484
N  N1  1  0.53093000  0.43106000  0.99103000  1.0 -0.0108053521
N  N2  1  0.43106000  0.99103000  0.53093000  1.0 -0.0108053521
N  N3  1  0.99103000  0.53093000  0.43106000  1.0 -0.0108053521
N  N4  1  0.46907000  0.56894000  0.00897000  1.0 -0.0108053521
N  N5  1  0.56894000  0.00897000  0.46907000  1.0 -0.0108053521
N  N6  1  0.00897000  0.46907000  0.56894000  1.0 -0.0108053521
O  O1  1  0.15172000  0.00271000  0.44667000  1.0 -0.5579368203
O  O2  1  0.00271000  0.44667000  0.15172000  1.0 -0.5579368203
O  O3  1  0.44667000  0.15172000  0.00271000  1.0 -0.5579368203
O  O4  1  0.84828000  0.99729000  0.55333000  1.0 -0.5579368203
O  O5  1  0.99729000  0.55333000  0.84828000  1.0 -0.5579368203
O  O6  1  0.55333000  0.84828000  0.99729000  1.0 -0.5579368203
O  O7  1  0.41276000  0.14384000  0.70510000  1.0 -0.7273691624
O  O8  1  0.14384000  0.70510000  0.41276000  1.0 -0.7273691624
O  O9  1  0.70510000  0.41276000  0.14384000  1.0 -0.7273691624
O  O10  1  0.58724000  0.85616000  0.29490000  1.0 -0.7273691624
O  O11  1  0.85616000  0.29490000  0.58724000  1.0 -0.7273691624
O  O12  1  0.29490000  0.58724000  0.85616000  1.0 -0.7273691624
O  O13  1  0.04615000  0.80743000  0.41578000  1.0 -0.7114441722
O  O14  1  0.80743000  0.41578000  0.04615000  1.0 -0.7114441722
O  O15  1  0.41578000  0.04615000  0.80743000  1.0 -0.7114441722
O  O16  1  0.95385000  0.19257000  0.58422000  1.0 -0.7114441722
O  O17  1  0.19257000  0.58422000  0.95385000  1.0 -0.7114441722
O  O18  1  0.58422000  0.95385000  0.19257000  1.0 -0.7114441722
O  O19  1  0.59940000  0.04020000  0.81440000  1.0 -0.3331260065
O  O20  1  0.04020000  0.81440000  0.59940000  1.0 -0.3331260065
O  O21  1  0.81440000  0.59940000  0.04020000  1.0 -0.3331260065
O  O22  1  0.40060000  0.95980000  0.18560000  1.0 -0.339923201
O  O23  1  0.95980000  0.18560000  0.40060000  1.0 -0.3331260065
O  O24  1  0.18560000  0.40060000  0.95980000  1.0 -0.3331260065
