# DDEC6 charges by PACMAN v1.1 (https://github.com/mtap-research/PACMAN-charge/)
data_XESKUD_FSR_pacman
_symmetry_space_group_name_H-M   'P 1'
_cell_length_a   16.31210000
_cell_length_b   16.31210000
_cell_length_c   16.31210000
_cell_angle_alpha   118.31400000
_cell_angle_beta   118.31400000
_cell_angle_gamma   118.31400000
_symmetry_Int_Tables_number   1
_chemical_formula_structural   FePC3NO4
_chemical_formula_sum   'Fe6 P6 C18 N6 O24'
_cell_volume   1450.67405480
_cell_formula_units_Z   6
loop_
 _symmetry_equiv_pos_site_id
 _symmetry_equiv_pos_as_xyz
  1  'x, y, z'
loop_
 _atom_site_type_symbol
 _atom_site_label
 _atom_site_symmetry_multiplicity
 _atom_site_fract_x
 _atom_site_fract_y
 _atom_site_fract_z
 _atom_site_occupancy
 _atom_site_charge
Fe  Fe1  1  0.43690000  0.01350000  0.68350000  1.0 1.0363806255
Fe  Fe2  1  0.01350000  0.68350000  0.43690000  1.0 1.0363806255
Fe  Fe3  1  0.68350000  0.43690000  0.01350000  1.0 1.0363806255
Fe  Fe4  1  0.56310000  0.98650000  0.31650000  1.0 1.0363806255
Fe  Fe5  1  0.98650000  0.31650000  0.56310000  1.0 1.0363806255
Fe  Fe6  1  0.31650000  0.56310000  0.98650000  1.0 1.0363806255
P  P1  1  0.19265000  0.00488000  0.53827000  1.0 1.3065972495
P  P2  1  0.00488000  0.53827000  0.19265000  1.0 1.3065972495
P  P3  1  0.53827000  0.19265000  0.00488000  1.0 1.3065972495
P  P4  1  0.80735000  0.99512000  0.46173000  1.0 1.3065972495
P  P5  1  0.99512000  0.46173000  0.80735000  1.0 1.3065972495
P  P6  1  0.46173000  0.80735000  0.99512000  1.0 1.3065972495
C  C1  1  0.26962000  0.16536000  0.72562000  1.0 -0.2899326963
C  C2  1  0.16536000  0.72562000  0.26962000  1.0 -0.2899326963
C  C3  1  0.72562000  0.26962000  0.16536000  1.0 -0.2899326963
C  C4  1  0.73038000  0.83464000  0.27438000  1.0 -0.2899326963
C  C5  1  0.83464000  0.27438000  0.73038000  1.0 -0.2899326963
C  C6  1  0.27438000  0.73038000  0.83464000  1.0 -0.2899326963
C  C7  1  0.48881000  0.47832000  0.89607000  1.0 0.2407377826
C  C8  1  0.47832000  0.89607000  0.48881000  1.0 0.2407377826
C  C9  1  0.89607000  0.48881000  0.47832000  1.0 0.2407377826
C  C10  1  0.51119000  0.52168000  0.10393000  1.0 0.2407377826
C  C11  1  0.52168000  0.10393000  0.51119000  1.0 0.2407377826
C  C12  1  0.10393000  0.51119000  0.52168000  1.0 0.2407377826
C  C13  1  0.62829000  0.54789000  0.12802000  1.0 0.0786304466
C  C14  1  0.54789000  0.12802000  0.62829000  1.0 0.0786304466
C  C15  1  0.12802000  0.62829000  0.54789000  1.0 0.0786304466
C  C16  1  0.37171000  0.45211000  0.87198000  1.0 0.0786304466
C  C17  1  0.45211000  0.87198000  0.37171000  1.0 0.0786304466
C  C18  1  0.87198000  0.37171000  0.45211000  1.0 0.0786304466
N  N1  1  0.49344000  0.39891000  0.91865000  1.0 -0.0320084574
N  N2  1  0.39891000  0.91865000  0.49344000  1.0 -0.0320084574
N  N3  1  0.91865000  0.49344000  0.39891000  1.0 -0.0320084574
N  N4  1  0.50656000  0.60109000  0.08135000  1.0 -0.0320084574
N  N5  1  0.60109000  0.08135000  0.50656000  1.0 -0.0320084574
N  N6  1  0.08135000  0.50656000  0.60109000  1.0 -0.0320084574
O  O1  1  0.13150000  0.99530000  0.42690000  1.0 -0.5336875948
O  O2  1  0.99530000  0.42690000  0.13150000  1.0 -0.5356779727
O  O3  1  0.42690000  0.13150000  0.99530000  1.0 -0.5336875948
O  O4  1  0.86850000  0.00470000  0.57310000  1.0 -0.5356779727
O  O5  1  0.00470000  0.57310000  0.86850000  1.0 -0.5336875948
O  O6  1  0.57310000  0.86850000  0.00470000  1.0 -0.5336875948
O  O7  1  0.38090000  0.10800000  0.66030000  1.0 -0.7242765857
O  O8  1  0.10800000  0.66030000  0.38090000  1.0 -0.7242765857
O  O9  1  0.66030000  0.38090000  0.10800000  1.0 -0.7242765857
O  O10  1  0.61910000  0.89200000  0.33970000  1.0 -0.7242765857
O  O11  1  0.89200000  0.33970000  0.61910000  1.0 -0.7242765857
O  O12  1  0.33970000  0.61910000  0.89200000  1.0 -0.7242765857
O  O13  1  0.01910000  0.78530000  0.38450000  1.0 -0.6933782331
O  O14  1  0.78530000  0.38450000  0.01910000  1.0 -0.6933782331
O  O15  1  0.38450000  0.01910000  0.78530000  1.0 -0.6933782331
O  O16  1  0.98090000  0.21470000  0.61550000  1.0 -0.6933782331
O  O17  1  0.21470000  0.61550000  0.98090000  1.0 -0.6933782331
O  O18  1  0.61550000  0.98090000  0.21470000  1.0 -0.6933782331
O  O19  1  0.56730000  0.99550000  0.79520000  1.0 -0.3883990777
O  O20  1  0.99550000  0.79520000  0.56730000  1.0 -0.3883990777
O  O21  1  0.79520000  0.56730000  0.99550000  1.0 -0.3883990777
O  O22  1  0.43270000  0.00450000  0.20480000  1.0 -0.3883990777
O  O23  1  0.00450000  0.20480000  0.43270000  1.0 -0.3883990777
O  O24  1  0.20480000  0.43270000  0.00450000  1.0 -0.3883990777
