# DDEC6 charges by PACMAN v1.1 (https://github.com/mtap-research/PACMAN-charge/)
data_XESLAK_FSR_pacman
_symmetry_space_group_name_H-M   'P 1'
_cell_length_a   16.35490000
_cell_length_b   16.35490000
_cell_length_c   16.35490000
_cell_angle_alpha   118.38500000
_cell_angle_beta   118.38500000
_cell_angle_gamma   118.38500000
_symmetry_Int_Tables_number   1
_chemical_formula_structural   CoPC3NO4
_chemical_formula_sum   'Co6 P6 C18 N6 O24'
_cell_volume   1431.81873768
_cell_formula_units_Z   6
loop_
 _symmetry_equiv_pos_site_id
 _symmetry_equiv_pos_as_xyz
  1  'x, y, z'
loop_
 _atom_site_type_symbol
 _atom_site_label
 _atom_site_symmetry_multiplicity
 _atom_site_fract_x
 _atom_site_fract_y
 _atom_site_fract_z
 _atom_site_occupancy
 _atom_site_charge
Co  Co1  1  0.44248000  0.02360000  0.68432000  1.0 1.0423137767
Co  Co2  1  0.02360000  0.68432000  0.44248000  1.0 1.0423137767
Co  Co3  1  0.68432000  0.44248000  0.02360000  1.0 1.0423137767
Co  Co4  1  0.55752000  0.97640000  0.31568000  1.0 1.0423137767
Co  Co5  1  0.97640000  0.31568000  0.55752000  1.0 1.0423137767
Co  Co6  1  0.31568000  0.55752000  0.97640000  1.0 1.0423137767
P  P1  1  0.17910000  0.99290000  0.53950000  1.0 1.2798071526
P  P2  1  0.99290000  0.53950000  0.17910000  1.0 1.2798071526
P  P3  1  0.53950000  0.17910000  0.99290000  1.0 1.2798071526
P  P4  1  0.82090000  0.00710000  0.46050000  1.0 1.2798071526
P  P5  1  0.00710000  0.46050000  0.82090000  1.0 1.2798071526
P  P6  1  0.46050000  0.82090000  0.00710000  1.0 1.2798071526
C  C1  1  0.26260000  0.15670000  0.73260000  1.0 -0.2485472413
C  C2  1  0.15670000  0.73260000  0.26260000  1.0 -0.2485472413
C  C3  1  0.73260000  0.26260000  0.15670000  1.0 -0.2485472413
C  C4  1  0.73740000  0.84330000  0.26740000  1.0 -0.2485472413
C  C5  1  0.84330000  0.26740000  0.73740000  1.0 -0.2485472413
C  C6  1  0.26740000  0.73740000  0.84330000  1.0 -0.2485472413
C  C7  1  0.55430000  0.49850000  0.95020000  1.0 0.1314867236
C  C8  1  0.49850000  0.95020000  0.55430000  1.0 0.1314867236
C  C9  1  0.95020000  0.55430000  0.49850000  1.0 0.1314867236
C  C10  1  0.44570000  0.50150000  0.04980000  1.0 0.1314867236
C  C11  1  0.50150000  0.04980000  0.44570000  1.0 0.1314867236
C  C12  1  0.04980000  0.44570000  0.50150000  1.0 0.1314867236
C  C13  1  0.57820000  0.53150000  0.13030000  1.0 0.2156689264
C  C14  1  0.53150000  0.13030000  0.57820000  1.0 0.2126591899
C  C15  1  0.13030000  0.57820000  0.53150000  1.0 0.2156689264
C  C16  1  0.42180000  0.46850000  0.86970000  1.0 0.2126591899
C  C17  1  0.46850000  0.86970000  0.42180000  1.0 0.2126591899
C  C18  1  0.86970000  0.42180000  0.46850000  1.0 0.2126591899
N  N1  1  0.50231000  0.40349000  0.96130000  1.0 -0.0366026749
N  N2  1  0.40349000  0.96130000  0.50231000  1.0 -0.0366026749
N  N3  1  0.96130000  0.50231000  0.40349000  1.0 -0.0366026749
N  N4  1  0.49769000  0.59651000  0.03870000  1.0 -0.0342410073
N  N5  1  0.59651000  0.03870000  0.49769000  1.0 -0.0342410073
N  N6  1  0.03870000  0.49769000  0.59651000  1.0 -0.0342410073
O  O1  1  0.12980000  0.99670000  0.43950000  1.0 -0.5645116843
O  O2  1  0.99670000  0.43950000  0.12980000  1.0 -0.5645116843
O  O3  1  0.43950000  0.12980000  0.99670000  1.0 -0.5645116843
O  O4  1  0.87020000  0.00330000  0.56050000  1.0 -0.5645116843
O  O5  1  0.00330000  0.56050000  0.87020000  1.0 -0.567733226
O  O6  1  0.56050000  0.87020000  0.00330000  1.0 -0.567733226
O  O7  1  0.37340000  0.10810000  0.67400000  1.0 -0.7179331856
O  O8  1  0.10810000  0.67400000  0.37340000  1.0 -0.7179331856
O  O9  1  0.67400000  0.37340000  0.10810000  1.0 -0.7179331856
O  O10  1  0.62660000  0.89190000  0.32600000  1.0 -0.7179331856
O  O11  1  0.89190000  0.32600000  0.62660000  1.0 -0.7179331856
O  O12  1  0.32600000  0.62660000  0.89190000  1.0 -0.7179331856
O  O13  1  0.00210000  0.76920000  0.38130000  1.0 -0.7076281088
O  O14  1  0.76920000  0.38130000  0.00210000  1.0 -0.7076281088
O  O15  1  0.38130000  0.00210000  0.76920000  1.0 -0.7076281088
O  O16  1  0.99790000  0.23080000  0.61870000  1.0 -0.7076281088
O  O17  1  0.23080000  0.61870000  0.99790000  1.0 -0.7076281088
O  O18  1  0.61870000  0.99790000  0.23080000  1.0 -0.7076281088
O  O19  1  0.56840000  0.00710000  0.76150000  1.0 -0.3895971514
O  O20  1  0.00710000  0.76150000  0.56840000  1.0 -0.4049393214
O  O21  1  0.76150000  0.56840000  0.00710000  1.0 -0.3895971514
O  O22  1  0.43160000  0.99290000  0.23850000  1.0 -0.3895971514
O  O23  1  0.99290000  0.23850000  0.43160000  1.0 -0.3895971514
O  O24  1  0.23850000  0.43160000  0.99290000  1.0 -0.3895971514
