# DDEC6 charges by PACMAN v1.1 (https://github.com/mtap-research/PACMAN-charge/)
data_XEVHAJ_FSR_pacman
_symmetry_space_group_name_H-M   'P 1'
_cell_length_a   12.69470000
_cell_length_b   12.69470000
_cell_length_c   17.83300000
_cell_angle_alpha   90.00000000
_cell_angle_beta   90.00000000
_cell_angle_gamma   120.00000000
_symmetry_Int_Tables_number   1
_chemical_formula_structural   Tb2Cd3H72(CO)36
_chemical_formula_sum   'Tb4 Cd6 H144 C72 O72'
_cell_volume   2488.85689142
_cell_formula_units_Z   2
loop_
 _symmetry_equiv_pos_site_id
 _symmetry_equiv_pos_as_xyz
  1  'x, y, z'
loop_
 _atom_site_type_symbol
 _atom_site_label
 _atom_site_symmetry_multiplicity
 _atom_site_fract_x
 _atom_site_fract_y
 _atom_site_fract_z
 _atom_site_occupancy
 _atom_site_charge
Tb  Tb1  1  0.66666667  0.33333333  0.25000000  1.0 1.6746633404
Tb  Tb2  1  0.33333333  0.66666667  0.25000000  1.0 1.6758446647
Tb  Tb3  1  0.33333333  0.66666667  0.75000000  1.0 1.6758446647
Tb  Tb4  1  0.66666667  0.33333333  0.75000000  1.0 1.6758446647
Cd  Cd1  1  0.00000000  0.50000000  0.00000000  1.0 0.9847041123
Cd  Cd2  1  0.50000000  0.50000000  0.00000000  1.0 0.9847041123
Cd  Cd3  1  0.50000000  0.00000000  0.00000000  1.0 0.9859454784
Cd  Cd4  1  0.50000000  0.00000000  0.50000000  1.0 0.9859454784
Cd  Cd5  1  0.50000000  0.50000000  0.50000000  1.0 0.9859454784
Cd  Cd6  1  0.00000000  0.50000000  0.50000000  1.0 0.9847041123
H  H1  1  0.79400000  0.49820000  0.05000000  1.0 0.2226550334
H  H2  1  0.50180000  0.29580000  0.05000000  1.0 0.2226550334
H  H3  1  0.70420000  0.20600000  0.05000000  1.0 0.2226550334
H  H4  1  0.20600000  0.50180000  0.05000000  1.0 0.2226550334
H  H5  1  0.49820000  0.70420000  0.05000000  1.0 0.2226550334
H  H6  1  0.29580000  0.79400000  0.05000000  1.0 0.2226550334
H  H7  1  0.49820000  0.79400000  0.45000000  1.0 0.2226550334
H  H8  1  0.29580000  0.50180000  0.45000000  1.0 0.2226550334
H  H9  1  0.20600000  0.70420000  0.45000000  1.0 0.2226550334
H  H10  1  0.50180000  0.20600000  0.45000000  1.0 0.2226550334
H  H11  1  0.70420000  0.49820000  0.45000000  1.0 0.2226550334
H  H12  1  0.79400000  0.29580000  0.45000000  1.0 0.2226550334
H  H13  1  0.20600000  0.50180000  0.95000000  1.0 0.2226550334
H  H14  1  0.49820000  0.70420000  0.95000000  1.0 0.2226550334
H  H15  1  0.29580000  0.79400000  0.95000000  1.0 0.2226550334
H  H16  1  0.79400000  0.49820000  0.95000000  1.0 0.2226550334
H  H17  1  0.50180000  0.29580000  0.95000000  1.0 0.2226550334
H  H18  1  0.70420000  0.20600000  0.95000000  1.0 0.2226550334
H  H19  1  0.50180000  0.20600000  0.55000000  1.0 0.2226550334
H  H20  1  0.70420000  0.49820000  0.55000000  1.0 0.2226550334
H  H21  1  0.79400000  0.29580000  0.55000000  1.0 0.2226550334
H  H22  1  0.49820000  0.79400000  0.55000000  1.0 0.2226550334
H  H23  1  0.29580000  0.50180000  0.55000000  1.0 0.2226550334
H  H24  1  0.20600000  0.70420000  0.55000000  1.0 0.2226550334
H  H25  1  0.75740000  0.13710000  0.14970000  1.0 0.1121872866
H  H26  1  0.86290000  0.62030000  0.14970000  1.0 0.1121872866
H  H27  1  0.37970000  0.24260000  0.14970000  1.0 0.1121872866
H  H28  1  0.24260000  0.86290000  0.14970000  1.0 0.1121872866
H  H29  1  0.13710000  0.37970000  0.14970000  1.0 0.1121872866
H  H30  1  0.62030000  0.75740000  0.14970000  1.0 0.1121872866
H  H31  1  0.13710000  0.75740000  0.35030000  1.0 0.1121872866
H  H32  1  0.62030000  0.86290000  0.35030000  1.0 0.1121872866
H  H33  1  0.24260000  0.37970000  0.35030000  1.0 0.1121872866
H  H34  1  0.86290000  0.24260000  0.35030000  1.0 0.1121872866
H  H35  1  0.37970000  0.13710000  0.35030000  1.0 0.1121872866
H  H36  1  0.75740000  0.62030000  0.35030000  1.0 0.1121872866
H  H37  1  0.24260000  0.86290000  0.85030000  1.0 0.1121872866
H  H38  1  0.13710000  0.37970000  0.85030000  1.0 0.1121872866
H  H39  1  0.62030000  0.75740000  0.85030000  1.0 0.1121872866
H  H40  1  0.75740000  0.13710000  0.85030000  1.0 0.1121872866
H  H41  1  0.86290000  0.62030000  0.85030000  1.0 0.1121872866
H  H42  1  0.37970000  0.24260000  0.85030000  1.0 0.1121872866
H  H43  1  0.86290000  0.24260000  0.64970000  1.0 0.1121872866
H  H44  1  0.37970000  0.13710000  0.64970000  1.0 0.1121872866
H  H45  1  0.75740000  0.62030000  0.64970000  1.0 0.1121872866
H  H46  1  0.13710000  0.75740000  0.64970000  1.0 0.1121872866
H  H47  1  0.62030000  0.86290000  0.64970000  1.0 0.1121872866
H  H48  1  0.24260000  0.37970000  0.64970000  1.0 0.1121872866
H  H49  1  0.88740000  0.18230000  0.18530000  1.0 0.0815044769
H  H50  1  0.81770000  0.70510000  0.18530000  1.0 0.0815044769
H  H51  1  0.29490000  0.11260000  0.18530000  1.0 0.0815044769
H  H52  1  0.11260000  0.81770000  0.18530000  1.0 0.0815044769
H  H53  1  0.18230000  0.29490000  0.18530000  1.0 0.0815044769
H  H54  1  0.70510000  0.88740000  0.18530000  1.0 0.0815044769
H  H55  1  0.18230000  0.88740000  0.31470000  1.0 0.0815044769
H  H56  1  0.70510000  0.81770000  0.31470000  1.0 0.0815044769
H  H57  1  0.11260000  0.29490000  0.31470000  1.0 0.0815044769
H  H58  1  0.81770000  0.11260000  0.31470000  1.0 0.0815044769
H  H59  1  0.29490000  0.18230000  0.31470000  1.0 0.0815044769
H  H60  1  0.88740000  0.70510000  0.31470000  1.0 0.0815044769
H  H61  1  0.11260000  0.81770000  0.81470000  1.0 0.0815044769
H  H62  1  0.18230000  0.29490000  0.81470000  1.0 0.0815044769
H  H63  1  0.70510000  0.88740000  0.81470000  1.0 0.0815044769
H  H64  1  0.88740000  0.18230000  0.81470000  1.0 0.0815044769
H  H65  1  0.81770000  0.70510000  0.81470000  1.0 0.0815044769
H  H66  1  0.29490000  0.11260000  0.81470000  1.0 0.0815044769
H  H67  1  0.81770000  0.11260000  0.68530000  1.0 0.0815044769
H  H68  1  0.29490000  0.18230000  0.68530000  1.0 0.0815044769
H  H69  1  0.88740000  0.70510000  0.68530000  1.0 0.0815044769
H  H70  1  0.18230000  0.88740000  0.68530000  1.0 0.0815044769
H  H71  1  0.70510000  0.81770000  0.68530000  1.0 0.0815044769
H  H72  1  0.11260000  0.29490000  0.68530000  1.0 0.0815044769
H  H73  1  0.91890000  0.21630000  0.19420000  1.0 0.0902856735
H  H74  1  0.78370000  0.70260000  0.19420000  1.0 0.0902856735
H  H75  1  0.29740000  0.08110000  0.19420000  1.0 0.0902856735
H  H76  1  0.08110000  0.78370000  0.19420000  1.0 0.0902856735
H  H77  1  0.21630000  0.29740000  0.19420000  1.0 0.0902856735
H  H78  1  0.70260000  0.91890000  0.19420000  1.0 0.0902856735
H  H79  1  0.21630000  0.91890000  0.30580000  1.0 0.0902856735
H  H80  1  0.70260000  0.78370000  0.30580000  1.0 0.0902856735
H  H81  1  0.08110000  0.29740000  0.30580000  1.0 0.0902856735
H  H82  1  0.78370000  0.08110000  0.30580000  1.0 0.0902856735
H  H83  1  0.29740000  0.21630000  0.30580000  1.0 0.0902856735
H  H84  1  0.91890000  0.70260000  0.30580000  1.0 0.0902856735
H  H85  1  0.08110000  0.78370000  0.80580000  1.0 0.0902856735
H  H86  1  0.21630000  0.29740000  0.80580000  1.0 0.0902856735
H  H87  1  0.70260000  0.91890000  0.80580000  1.0 0.0902856735
H  H88  1  0.91890000  0.21630000  0.80580000  1.0 0.0902856735
H  H89  1  0.78370000  0.70260000  0.80580000  1.0 0.0902856735
H  H90  1  0.29740000  0.08110000  0.80580000  1.0 0.0902856735
H  H91  1  0.78370000  0.08110000  0.69420000  1.0 0.0902856735
H  H92  1  0.29740000  0.21630000  0.69420000  1.0 0.0902856735
H  H93  1  0.91890000  0.70260000  0.69420000  1.0 0.0902856735
H  H94  1  0.21630000  0.91890000  0.69420000  1.0 0.0902856735
H  H95  1  0.70260000  0.78370000  0.69420000  1.0 0.0902856735
H  H96  1  0.08110000  0.29740000  0.69420000  1.0 0.0902856735
H  H97  1  0.96250000  0.33910000  0.23850000  1.0 0.0902856735
H  H98  1  0.66090000  0.62340000  0.23850000  1.0 0.0902856735
H  H99  1  0.37660000  0.03750000  0.23850000  1.0 0.0902856735
H  H100  1  0.03750000  0.66090000  0.23850000  1.0 0.0902856735
H  H101  1  0.33910000  0.37660000  0.23850000  1.0 0.0902856735
H  H102  1  0.62340000  0.96250000  0.23850000  1.0 0.0902856735
H  H103  1  0.33910000  0.96250000  0.26150000  1.0 0.0902856735
H  H104  1  0.62340000  0.66090000  0.26150000  1.0 0.0902856735
H  H105  1  0.03750000  0.37660000  0.26150000  1.0 0.0902856735
H  H106  1  0.66090000  0.03750000  0.26150000  1.0 0.0902856735
H  H107  1  0.37660000  0.33910000  0.26150000  1.0 0.0902856735
H  H108  1  0.96250000  0.62340000  0.26150000  1.0 0.0902856735
H  H109  1  0.03750000  0.66090000  0.76150000  1.0 0.0902856735
H  H110  1  0.33910000  0.37660000  0.76150000  1.0 0.0902856735
H  H111  1  0.62340000  0.96250000  0.76150000  1.0 0.0902856735
H  H112  1  0.96250000  0.33910000  0.76150000  1.0 0.0902856735
H  H113  1  0.66090000  0.62340000  0.76150000  1.0 0.0902856735
H  H114  1  0.37660000  0.03750000  0.76150000  1.0 0.0902856735
H  H115  1  0.66090000  0.03750000  0.73850000  1.0 0.0902856735
H  H116  1  0.37660000  0.33910000  0.73850000  1.0 0.0902856735
H  H117  1  0.96250000  0.62340000  0.73850000  1.0 0.0902856735
H  H118  1  0.33910000  0.96250000  0.73850000  1.0 0.0902856735
H  H119  1  0.62340000  0.66090000  0.73850000  1.0 0.0902856735
H  H120  1  0.03750000  0.37660000  0.73850000  1.0 0.0902856735
H  H121  1  0.81350000  0.54290000  0.96620000  1.0 0.1273504915
H  H122  1  0.45710000  0.27060000  0.96620000  1.0 0.1273504915
H  H123  1  0.72940000  0.18650000  0.96620000  1.0 0.1273504915
H  H124  1  0.18650000  0.45710000  0.96620000  1.0 0.1273504915
H  H125  1  0.54290000  0.72940000  0.96620000  1.0 0.1273504915
H  H126  1  0.27060000  0.81350000  0.96620000  1.0 0.1273504915
H  H127  1  0.54290000  0.81350000  0.53380000  1.0 0.1273504915
H  H128  1  0.27060000  0.45710000  0.53380000  1.0 0.1273504915
H  H129  1  0.18650000  0.72940000  0.53380000  1.0 0.1273504915
H  H130  1  0.45710000  0.18650000  0.53380000  1.0 0.1273504915
H  H131  1  0.72940000  0.54290000  0.53380000  1.0 0.1273504915
H  H132  1  0.81350000  0.27060000  0.53380000  1.0 0.1273504915
H  H133  1  0.18650000  0.45710000  0.03380000  1.0 0.1273504915
H  H134  1  0.54290000  0.72940000  0.03380000  1.0 0.1273504915
H  H135  1  0.27060000  0.81350000  0.03380000  1.0 0.1273504915
H  H136  1  0.81350000  0.54290000  0.03380000  1.0 0.1273504915
H  H137  1  0.45710000  0.27060000  0.03380000  1.0 0.1273504915
H  H138  1  0.72940000  0.18650000  0.03380000  1.0 0.1273504915
H  H139  1  0.45710000  0.18650000  0.46620000  1.0 0.1273504915
H  H140  1  0.72940000  0.54290000  0.46620000  1.0 0.1273504915
H  H141  1  0.81350000  0.27060000  0.46620000  1.0 0.1273504915
H  H142  1  0.54290000  0.81350000  0.46620000  1.0 0.1273504915
H  H143  1  0.27060000  0.45710000  0.46620000  1.0 0.1273504915
H  H144  1  0.18650000  0.72940000  0.46620000  1.0 0.1273504915
C  C1  1  0.87200000  0.33150000  0.14030000  1.0 0.4260092133
C  C2  1  0.66850000  0.54050000  0.14030000  1.0 0.4260092133
C  C3  1  0.45950000  0.12800000  0.14030000  1.0 0.4239707605
C  C4  1  0.12800000  0.66850000  0.14030000  1.0 0.4239707605
C  C5  1  0.33150000  0.45950000  0.14030000  1.0 0.4239707605
C  C6  1  0.54050000  0.87200000  0.14030000  1.0 0.4239707605
C  C7  1  0.33150000  0.87200000  0.35970000  1.0 0.4239707605
C  C8  1  0.54050000  0.66850000  0.35970000  1.0 0.4260092133
C  C9  1  0.12800000  0.45950000  0.35970000  1.0 0.4239707605
C  C10  1  0.66850000  0.12800000  0.35970000  1.0 0.4260092133
C  C11  1  0.45950000  0.33150000  0.35970000  1.0 0.4239707605
C  C12  1  0.87200000  0.54050000  0.35970000  1.0 0.4239707605
C  C13  1  0.12800000  0.66850000  0.85970000  1.0 0.4239707605
C  C14  1  0.33150000  0.45950000  0.85970000  1.0 0.4239707605
C  C15  1  0.54050000  0.87200000  0.85970000  1.0 0.4239707605
C  C16  1  0.87200000  0.33150000  0.85970000  1.0 0.4260092133
C  C17  1  0.66850000  0.54050000  0.85970000  1.0 0.4260092133
C  C18  1  0.45950000  0.12800000  0.85970000  1.0 0.4239707605
C  C19  1  0.66850000  0.12800000  0.64030000  1.0 0.4260092133
C  C20  1  0.45950000  0.33150000  0.64030000  1.0 0.4239707605
C  C21  1  0.87200000  0.54050000  0.64030000  1.0 0.4239707605
C  C22  1  0.33150000  0.87200000  0.64030000  1.0 0.4239707605
C  C23  1  0.54050000  0.66850000  0.64030000  1.0 0.4260092133
C  C24  1  0.12800000  0.45950000  0.64030000  1.0 0.4239707605
C  C25  1  0.82300000  0.20100000  0.17860000  1.0 -0.1278425452
C  C26  1  0.79900000  0.62200000  0.17860000  1.0 -0.1278425452
C  C27  1  0.37800000  0.17700000  0.17860000  1.0 -0.1278425452
C  C28  1  0.17700000  0.79900000  0.17860000  1.0 -0.1278425452
C  C29  1  0.20100000  0.37800000  0.17860000  1.0 -0.1278425452
C  C30  1  0.62200000  0.82300000  0.17860000  1.0 -0.1278425452
C  C31  1  0.20100000  0.82300000  0.32140000  1.0 -0.1278425452
C  C32  1  0.62200000  0.79900000  0.32140000  1.0 -0.1278425452
C  C33  1  0.17700000  0.37800000  0.32140000  1.0 -0.1278425452
C  C34  1  0.79900000  0.17700000  0.32140000  1.0 -0.1278425452
C  C35  1  0.37800000  0.20100000  0.32140000  1.0 -0.1278425452
C  C36  1  0.82300000  0.62200000  0.32140000  1.0 -0.1278425452
C  C37  1  0.17700000  0.79900000  0.82140000  1.0 -0.1278425452
C  C38  1  0.20100000  0.37800000  0.82140000  1.0 -0.1278425452
C  C39  1  0.62200000  0.82300000  0.82140000  1.0 -0.1278425452
C  C40  1  0.82300000  0.20100000  0.82140000  1.0 -0.1278425452
C  C41  1  0.79900000  0.62200000  0.82140000  1.0 -0.1278425452
C  C42  1  0.37800000  0.17700000  0.82140000  1.0 -0.1278425452
C  C43  1  0.79900000  0.17700000  0.67860000  1.0 -0.1278425452
C  C44  1  0.37800000  0.20100000  0.67860000  1.0 -0.1278425452
C  C45  1  0.82300000  0.62200000  0.67860000  1.0 -0.1278425452
C  C46  1  0.20100000  0.82300000  0.67860000  1.0 -0.1278425452
C  C47  1  0.62200000  0.79900000  0.67860000  1.0 -0.1278425452
C  C48  1  0.17700000  0.37800000  0.67860000  1.0 -0.1278425452
C  C49  1  0.89700000  0.27700000  0.20850000  1.0 -0.0940150063
C  C50  1  0.72300000  0.62000000  0.20850000  1.0 -0.0940150063
C  C51  1  0.38000000  0.10300000  0.20850000  1.0 -0.0940150063
C  C52  1  0.10300000  0.72300000  0.20850000  1.0 -0.0940150063
C  C53  1  0.27700000  0.38000000  0.20850000  1.0 -0.0940150063
C  C54  1  0.62000000  0.89700000  0.20850000  1.0 -0.0940150063
C  C55  1  0.27700000  0.89700000  0.29150000  1.0 -0.0940150063
C  C56  1  0.62000000  0.72300000  0.29150000  1.0 -0.0940150063
C  C57  1  0.10300000  0.38000000  0.29150000  1.0 -0.0940150063
C  C58  1  0.72300000  0.10300000  0.29150000  1.0 -0.0940150063
C  C59  1  0.38000000  0.27700000  0.29150000  1.0 -0.0940150063
C  C60  1  0.89700000  0.62000000  0.29150000  1.0 -0.0940150063
C  C61  1  0.10300000  0.72300000  0.79150000  1.0 -0.0940150063
C  C62  1  0.27700000  0.38000000  0.79150000  1.0 -0.0940150063
C  C63  1  0.62000000  0.89700000  0.79150000  1.0 -0.0940150063
C  C64  1  0.89700000  0.27700000  0.79150000  1.0 -0.0940150063
C  C65  1  0.72300000  0.62000000  0.79150000  1.0 -0.0940150063
C  C66  1  0.38000000  0.10300000  0.79150000  1.0 -0.0940150063
C  C67  1  0.72300000  0.10300000  0.70850000  1.0 -0.0940150063
C  C68  1  0.38000000  0.27700000  0.70850000  1.0 -0.0940150063
C  C69  1  0.89700000  0.62000000  0.70850000  1.0 -0.0940150063
C  C70  1  0.27700000  0.89700000  0.70850000  1.0 -0.0940150063
C  C71  1  0.62000000  0.72300000  0.70850000  1.0 -0.0940150063
C  C72  1  0.10300000  0.38000000  0.70850000  1.0 -0.0940150063
O  O1  1  0.93880000  0.34910000  0.08430000  1.0 -0.511559804
O  O2  1  0.65090000  0.58970000  0.08430000  1.0 -0.511559804
O  O3  1  0.41030000  0.06120000  0.08430000  1.0 -0.511559804
O  O4  1  0.06120000  0.65090000  0.08430000  1.0 -0.511559804
O  O5  1  0.34910000  0.41030000  0.08430000  1.0 -0.511559804
O  O6  1  0.58970000  0.93880000  0.08430000  1.0 -0.511559804
O  O7  1  0.34910000  0.93880000  0.41570000  1.0 -0.511559804
O  O8  1  0.58970000  0.65090000  0.41570000  1.0 -0.511559804
O  O9  1  0.06120000  0.41030000  0.41570000  1.0 -0.511559804
O  O10  1  0.65090000  0.06120000  0.41570000  1.0 -0.511559804
O  O11  1  0.41030000  0.34910000  0.41570000  1.0 -0.511559804
O  O12  1  0.93880000  0.58970000  0.41570000  1.0 -0.511559804
O  O13  1  0.06120000  0.65090000  0.91570000  1.0 -0.511559804
O  O14  1  0.34910000  0.41030000  0.91570000  1.0 -0.511559804
O  O15  1  0.58970000  0.93880000  0.91570000  1.0 -0.511559804
O  O16  1  0.93880000  0.34910000  0.91570000  1.0 -0.511559804
O  O17  1  0.65090000  0.58970000  0.91570000  1.0 -0.511559804
O  O18  1  0.41030000  0.06120000  0.91570000  1.0 -0.511559804
O  O19  1  0.65090000  0.06120000  0.58430000  1.0 -0.511559804
O  O20  1  0.41030000  0.34910000  0.58430000  1.0 -0.511559804
O  O21  1  0.93880000  0.58970000  0.58430000  1.0 -0.511559804
O  O22  1  0.34910000  0.93880000  0.58430000  1.0 -0.511559804
O  O23  1  0.58970000  0.65090000  0.58430000  1.0 -0.511559804
O  O24  1  0.06120000  0.41030000  0.58430000  1.0 -0.511559804
O  O25  1  0.81970000  0.38870000  0.15560000  1.0 -0.567847336
O  O26  1  0.61130000  0.43100000  0.15560000  1.0 -0.567847336
O  O27  1  0.56900000  0.18030000  0.15560000  1.0 -0.567847336
O  O28  1  0.18030000  0.61130000  0.15560000  1.0 -0.567847336
O  O29  1  0.38870000  0.56900000  0.15560000  1.0 -0.567847336
O  O30  1  0.43100000  0.81970000  0.15560000  1.0 -0.567847336
O  O31  1  0.38870000  0.81970000  0.34440000  1.0 -0.567847336
O  O32  1  0.43100000  0.61130000  0.34440000  1.0 -0.567847336
O  O33  1  0.18030000  0.56900000  0.34440000  1.0 -0.567847336
O  O34  1  0.61130000  0.18030000  0.34440000  1.0 -0.567847336
O  O35  1  0.56900000  0.38870000  0.34440000  1.0 -0.567847336
O  O36  1  0.81970000  0.43100000  0.34440000  1.0 -0.567847336
O  O37  1  0.18030000  0.61130000  0.84440000  1.0 -0.567847336
O  O38  1  0.38870000  0.56900000  0.84440000  1.0 -0.567847336
O  O39  1  0.43100000  0.81970000  0.84440000  1.0 -0.567847336
O  O40  1  0.81970000  0.38870000  0.84440000  1.0 -0.567847336
O  O41  1  0.61130000  0.43100000  0.84440000  1.0 -0.567847336
O  O42  1  0.56900000  0.18030000  0.84440000  1.0 -0.567847336
O  O43  1  0.61130000  0.18030000  0.65560000  1.0 -0.567847336
O  O44  1  0.56900000  0.38870000  0.65560000  1.0 -0.567847336
O  O45  1  0.81970000  0.43100000  0.65560000  1.0 -0.567847336
O  O46  1  0.38870000  0.81970000  0.65560000  1.0 -0.567847336
O  O47  1  0.43100000  0.61130000  0.65560000  1.0 -0.567847336
O  O48  1  0.18030000  0.56900000  0.65560000  1.0 -0.567847336
O  O49  1  0.77970000  0.22030000  0.25000000  1.0 -0.1846216268
O  O50  1  0.77970000  0.55940000  0.25000000  1.0 -0.1846216268
O  O51  1  0.44060000  0.22030000  0.25000000  1.0 -0.1846216268
O  O52  1  0.22030000  0.77970000  0.25000000  1.0 -0.1846216268
O  O53  1  0.22030000  0.44060000  0.25000000  1.0 -0.1846216268
O  O54  1  0.55940000  0.77970000  0.25000000  1.0 -0.1846216268
O  O55  1  0.22030000  0.77970000  0.75000000  1.0 -0.1846216268
O  O56  1  0.22030000  0.44060000  0.75000000  1.0 -0.1846216268
O  O57  1  0.55940000  0.77970000  0.75000000  1.0 -0.1846216268
O  O58  1  0.77970000  0.22030000  0.75000000  1.0 -0.1846216268
O  O59  1  0.77970000  0.55940000  0.75000000  1.0 -0.1846216268
O  O60  1  0.44060000  0.22030000  0.75000000  1.0 -0.1846216268
O  O61  1  0.81290000  0.48390000  0.00000000  1.0 -0.5618655927
O  O62  1  0.51610000  0.32900000  0.00000000  1.0 -0.5618655927
O  O63  1  0.67100000  0.18710000  0.00000000  1.0 -0.5618655927
O  O64  1  0.18710000  0.51610000  0.00000000  1.0 -0.5618655927
O  O65  1  0.48390000  0.67100000  0.00000000  1.0 -0.5618655927
O  O66  1  0.32900000  0.81290000  0.00000000  1.0 -0.5618655927
O  O67  1  0.48390000  0.81290000  0.50000000  1.0 -0.5618655927
O  O68  1  0.32900000  0.51610000  0.50000000  1.0 -0.5618655927
O  O69  1  0.18710000  0.67100000  0.50000000  1.0 -0.5618655927
O  O70  1  0.51610000  0.18710000  0.50000000  1.0 -0.5618655927
O  O71  1  0.67100000  0.48390000  0.50000000  1.0 -0.5618655927
O  O72  1  0.81290000  0.32900000  0.50000000  1.0 -0.5618655927
