# DDEC6 charges by PACMAN v1.1 (https://github.com/mtap-research/PACMAN-charge/)
data_XEVRIC_ASR_pacman
_symmetry_space_group_name_H-M   'P 1'
_cell_length_a   9.73090000
_cell_length_b   13.32330000
_cell_length_c   22.53060000
_cell_angle_alpha   90.00000000
_cell_angle_beta   90.00000000
_cell_angle_gamma   90.00000000
_symmetry_Int_Tables_number   1
_chemical_formula_structural   ZnH14C20(NO)4
_chemical_formula_sum   'Zn4 H56 C80 N16 O16'
_cell_volume   2921.04046894
_cell_formula_units_Z   4
loop_
 _symmetry_equiv_pos_site_id
 _symmetry_equiv_pos_as_xyz
  1  'x, y, z'
loop_
 _atom_site_type_symbol
 _atom_site_label
 _atom_site_symmetry_multiplicity
 _atom_site_fract_x
 _atom_site_fract_y
 _atom_site_fract_z
 _atom_site_occupancy
 _atom_site_charge
Zn  Zn1  1  0.68223000  0.28288000  0.75000000  1.0 0.7383377483
Zn  Zn2  1  0.31777000  0.71712000  0.25000000  1.0 0.7383377483
Zn  Zn3  1  0.18223000  0.21712000  0.25000000  1.0 0.7383377483
Zn  Zn4  1  0.81777000  0.78288000  0.75000000  1.0 0.7383377483
H  H1  1  0.83230000  0.09549000  0.69603000  1.0 0.1210927894
H  H2  1  0.51936000  0.23501000  0.62685000  1.0 0.1276466063
H  H3  1  0.55690000  0.08424000  0.56870000  1.0 0.1276466063
H  H4  1  0.81975000  0.92848000  0.64221000  1.0 0.1382772257
H  H5  1  0.70316000  0.91573000  0.59459000  1.0 0.1382772257
H  H6  1  0.16770000  0.90451000  0.19603000  1.0 0.1210927894
H  H7  1  0.48064000  0.76499000  0.12685000  1.0 0.1276466063
H  H8  1  0.44310000  0.91576000  0.06870000  1.0 0.1276466063
H  H9  1  0.18025000  0.07152000  0.14221000  1.0 0.1382772257
H  H10  1  0.29684000  0.08427000  0.09459000  1.0 0.1382772257
H  H11  1  0.16770000  0.90451000  0.30397000  1.0 0.1210927894
H  H12  1  0.48064000  0.76499000  0.37315000  1.0 0.1276466063
H  H13  1  0.44310000  0.91576000  0.43130000  1.0 0.1276466063
H  H14  1  0.18025000  0.07152000  0.35779000  1.0 0.1382772257
H  H15  1  0.29684000  0.08427000  0.40541000  1.0 0.1382772257
H  H16  1  0.83230000  0.09549000  0.80397000  1.0 0.1210927894
H  H17  1  0.51936000  0.23501000  0.87315000  1.0 0.1276466063
H  H18  1  0.55690000  0.08424000  0.93130000  1.0 0.1276466063
H  H19  1  0.81975000  0.92848000  0.85779000  1.0 0.1382772257
H  H20  1  0.70316000  0.91573000  0.90541000  1.0 0.1382772257
H  H21  1  0.95430000  0.53388000  0.75000000  1.0 0.0988161923
H  H22  1  0.13328000  0.64761000  0.75000000  1.0 0.1099303141
H  H23  1  0.35842000  0.59171000  0.75000000  1.0 0.1276466063
H  H24  1  0.22435000  0.30718000  0.75000000  1.0 0.1210927894
H  H25  1  0.04570000  0.46612000  0.25000000  1.0 0.0988161923
H  H26  1  0.86672000  0.35239000  0.25000000  1.0 0.1099303141
H  H27  1  0.64158000  0.40829000  0.25000000  1.0 0.1276466063
H  H28  1  0.77565000  0.69282000  0.25000000  1.0 0.1210927894
H  H29  1  0.33230000  0.40451000  0.30397000  1.0 0.1210927894
H  H30  1  0.01936000  0.26499000  0.37315000  1.0 0.1276466063
H  H31  1  0.05690000  0.41576000  0.43130000  1.0 0.1276466063
H  H32  1  0.31975000  0.57152000  0.35779000  1.0 0.1382772257
H  H33  1  0.20316000  0.58427000  0.40541000  1.0 0.1382772257
H  H34  1  0.66770000  0.59549000  0.80397000  1.0 0.1210927894
H  H35  1  0.98064000  0.73501000  0.87315000  1.0 0.1276466063
H  H36  1  0.94310000  0.58424000  0.93130000  1.0 0.1276466063
H  H37  1  0.68025000  0.42848000  0.85779000  1.0 0.1382772257
H  H38  1  0.79684000  0.41573000  0.90541000  1.0 0.1382772257
H  H39  1  0.66770000  0.59549000  0.69603000  1.0 0.1210927894
H  H40  1  0.98064000  0.73501000  0.62685000  1.0 0.1276466063
H  H41  1  0.94310000  0.58424000  0.56870000  1.0 0.1276466063
H  H42  1  0.68025000  0.42848000  0.64221000  1.0 0.1382772257
H  H43  1  0.79684000  0.41573000  0.59459000  1.0 0.1382772257
H  H44  1  0.33230000  0.40451000  0.19603000  1.0 0.1210927894
H  H45  1  0.01936000  0.26499000  0.12685000  1.0 0.1276466063
H  H46  1  0.05690000  0.41576000  0.06870000  1.0 0.1276466063
H  H47  1  0.31975000  0.57152000  0.14221000  1.0 0.1382772257
H  H48  1  0.20316000  0.58427000  0.09459000  1.0 0.1382772257
H  H49  1  0.45430000  0.96612000  0.25000000  1.0 0.0988161923
H  H50  1  0.63328000  0.85239000  0.25000000  1.0 0.1099303141
H  H51  1  0.85842000  0.90829000  0.25000000  1.0 0.1276466063
H  H52  1  0.72435000  0.19282000  0.25000000  1.0 0.1210927894
H  H53  1  0.54570000  0.03388000  0.75000000  1.0 0.0988161923
H  H54  1  0.36672000  0.14761000  0.75000000  1.0 0.1099303141
H  H55  1  0.14158000  0.09171000  0.75000000  1.0 0.1276466063
H  H56  1  0.27565000  0.80718000  0.75000000  1.0 0.1210927894
C  C1  1  0.75810000  0.11180000  0.67189000  1.0 0.1099303141
C  C2  1  0.58770000  0.18760000  0.63375000  1.0 -0.0424839402
C  C3  1  0.60710000  0.10470000  0.60170000  1.0 -0.1090381811
C  C4  1  0.77530000  0.96010000  0.60850000  1.0 -0.1213762688
C  C5  1  0.87540000  0.97600000  0.56133000  1.0 -0.0790583076
C  C6  1  0.95430000  0.99090000  0.52259000  1.0 -0.0486791287
C  C7  1  0.24190000  0.88820000  0.17189000  1.0 0.1099303141
C  C8  1  0.41230000  0.81240000  0.13375000  1.0 -0.0424839402
C  C9  1  0.39290000  0.89530000  0.10170000  1.0 -0.1090381811
C  C10  1  0.22470000  0.03990000  0.10850000  1.0 -0.1213762688
C  C11  1  0.12460000  0.02400000  0.06133000  1.0 -0.0790583076
C  C12  1  0.04570000  0.00910000  0.02259000  1.0 -0.0486791287
C  C13  1  0.24190000  0.88820000  0.32811000  1.0 0.1099303141
C  C14  1  0.41230000  0.81240000  0.36625000  1.0 -0.0424839402
C  C15  1  0.39290000  0.89530000  0.39830000  1.0 -0.1090381811
C  C16  1  0.22470000  0.03990000  0.39150000  1.0 -0.1213762688
C  C17  1  0.12460000  0.02400000  0.43867000  1.0 -0.0790583076
C  C18  1  0.04570000  0.00910000  0.47741000  1.0 -0.0486791287
C  C19  1  0.75810000  0.11180000  0.82811000  1.0 0.1099303141
C  C20  1  0.58770000  0.18760000  0.86625000  1.0 -0.0424839402
C  C21  1  0.60710000  0.10470000  0.89830000  1.0 -0.1090381811
C  C22  1  0.77530000  0.96010000  0.89150000  1.0 -0.1213762688
C  C23  1  0.87540000  0.97600000  0.93867000  1.0 -0.0790583076
C  C24  1  0.95430000  0.99090000  0.97741000  1.0 -0.0486791287
C  C25  1  0.95280000  0.33700000  0.75000000  1.0 0.5401608428
C  C26  1  0.07100000  0.40990000  0.75000000  1.0 -0.0118152036
C  C27  1  0.04460000  0.51100000  0.75000000  1.0 -0.1213762688
C  C28  1  0.15170000  0.57910000  0.75000000  1.0 -0.0920457052
C  C29  1  0.28650000  0.54570000  0.75000000  1.0 -0.1022129761
C  C30  1  0.31390000  0.44430000  0.75000000  1.0 -0.0118152036
C  C31  1  0.20610000  0.37570000  0.75000000  1.0 -0.1403581159
C  C32  1  0.46160000  0.40930000  0.75000000  1.0 0.4998834958
C  C33  1  0.04720000  0.66300000  0.25000000  1.0 0.5401608428
C  C34  1  0.92900000  0.59010000  0.25000000  1.0 -0.0118152036
C  C35  1  0.95540000  0.48900000  0.25000000  1.0 -0.1213762688
C  C36  1  0.84830000  0.42090000  0.25000000  1.0 -0.0920457052
C  C37  1  0.71350000  0.45430000  0.25000000  1.0 -0.1022129761
C  C38  1  0.68610000  0.55570000  0.25000000  1.0 -0.0118152036
C  C39  1  0.79390000  0.62430000  0.25000000  1.0 -0.1403581159
C  C40  1  0.53840000  0.59070000  0.25000000  1.0 0.4998834958
C  C41  1  0.25810000  0.38820000  0.32811000  1.0 0.1099303141
C  C42  1  0.08770000  0.31240000  0.36625000  1.0 -0.0424839402
C  C43  1  0.10710000  0.39530000  0.39830000  1.0 -0.1090381811
C  C44  1  0.27530000  0.53990000  0.39150000  1.0 -0.125424392
C  C45  1  0.37540000  0.52400000  0.43867000  1.0 -0.0790583076
C  C46  1  0.45430000  0.50910000  0.47741000  1.0 -0.0486791287
C  C47  1  0.74190000  0.61180000  0.82811000  1.0 0.1099303141
C  C48  1  0.91230000  0.68760000  0.86625000  1.0 -0.0424839402
C  C49  1  0.89290000  0.60470000  0.89830000  1.0 -0.1090381811
C  C50  1  0.72470000  0.46010000  0.89150000  1.0 -0.1213762688
C  C51  1  0.62460000  0.47600000  0.93867000  1.0 -0.0790583076
C  C52  1  0.54570000  0.49090000  0.97741000  1.0 -0.0486791287
C  C53  1  0.74190000  0.61180000  0.67189000  1.0 0.1099303141
C  C54  1  0.91230000  0.68760000  0.63375000  1.0 -0.0424839402
C  C55  1  0.89290000  0.60470000  0.60170000  1.0 -0.1090381811
C  C56  1  0.72470000  0.46010000  0.60850000  1.0 -0.1213762688
C  C57  1  0.62460000  0.47600000  0.56133000  1.0 -0.0790583076
C  C58  1  0.54570000  0.49090000  0.52259000  1.0 -0.0486791287
C  C59  1  0.25810000  0.38820000  0.17189000  1.0 0.1099303141
C  C60  1  0.08770000  0.31240000  0.13375000  1.0 -0.0424839402
C  C61  1  0.10710000  0.39530000  0.10170000  1.0 -0.1090381811
C  C62  1  0.27530000  0.53990000  0.10850000  1.0 -0.125424392
C  C63  1  0.37540000  0.52400000  0.06133000  1.0 -0.0790583076
C  C64  1  0.45430000  0.50910000  0.02259000  1.0 -0.0486791287
C  C65  1  0.45280000  0.16300000  0.25000000  1.0 0.5401608428
C  C66  1  0.57100000  0.09010000  0.25000000  1.0 -0.0118152036
C  C67  1  0.54460000  0.98900000  0.25000000  1.0 -0.1213762688
C  C68  1  0.65170000  0.92090000  0.25000000  1.0 -0.0920457052
C  C69  1  0.78650000  0.95430000  0.25000000  1.0 -0.1022129761
C  C70  1  0.81390000  0.05570000  0.25000000  1.0 -0.0118152036
C  C71  1  0.70610000  0.12430000  0.25000000  1.0 -0.1403581159
C  C72  1  0.96160000  0.09070000  0.25000000  1.0 0.4998834958
C  C73  1  0.54720000  0.83700000  0.75000000  1.0 0.5401608428
C  C74  1  0.42900000  0.90990000  0.75000000  1.0 -0.0118152036
C  C75  1  0.45540000  0.01100000  0.75000000  1.0 -0.1213762688
C  C76  1  0.34830000  0.07910000  0.75000000  1.0 -0.0920457052
C  C77  1  0.21350000  0.04570000  0.75000000  1.0 -0.1022129761
C  C78  1  0.18610000  0.94430000  0.75000000  1.0 -0.0118152036
C  C79  1  0.29390000  0.87570000  0.75000000  1.0 -0.1403581159
C  C80  1  0.03840000  0.90930000  0.75000000  1.0 0.4998834958
N  N1  1  0.68260000  0.19285000  0.67813000  1.0 -0.2965265283
N  N2  1  0.71510000  0.05620000  0.62700000  1.0 0.0515249526
N  N3  1  0.31740000  0.80715000  0.17813000  1.0 -0.2965265283
N  N4  1  0.28490000  0.94380000  0.12700000  1.0 0.0515249526
N  N5  1  0.31740000  0.80715000  0.32187000  1.0 -0.2965265283
N  N6  1  0.28490000  0.94380000  0.37300000  1.0 0.0515249526
N  N7  1  0.68260000  0.19285000  0.82187000  1.0 -0.2965265283
N  N8  1  0.71510000  0.05620000  0.87300000  1.0 0.0515249526
N  N9  1  0.18260000  0.30715000  0.32187000  1.0 -0.2965265283
N  N10  1  0.21510000  0.44380000  0.37300000  1.0 0.0515249526
N  N11  1  0.81740000  0.69285000  0.82187000  1.0 -0.2965265283
N  N12  1  0.78490000  0.55620000  0.87300000  1.0 0.0515249526
N  N13  1  0.81740000  0.69285000  0.67813000  1.0 -0.2965265283
N  N14  1  0.78490000  0.55620000  0.62700000  1.0 0.0515249526
N  N15  1  0.18260000  0.30715000  0.17813000  1.0 -0.2965265283
N  N16  1  0.21510000  0.44380000  0.12700000  1.0 0.0515249526
O  O1  1  0.83310000  0.37730000  0.75000000  1.0 -0.5642978916
O  O2  1  0.97370000  0.24560000  0.75000000  1.0 -0.5465541402
O  O3  1  0.48760000  0.32230000  0.75000000  1.0 -0.4448506603
O  O4  1  0.54970000  0.46760000  0.75000000  1.0 -0.4328285227
O  O5  1  0.16690000  0.62270000  0.25000000  1.0 -0.5642978916
O  O6  1  0.02630000  0.75440000  0.25000000  1.0 -0.5465541402
O  O7  1  0.51240000  0.67770000  0.25000000  1.0 -0.4451626012
O  O8  1  0.45030000  0.53240000  0.25000000  1.0 -0.4328285227
O  O9  1  0.33310000  0.12270000  0.25000000  1.0 -0.5642978916
O  O10  1  0.47370000  0.25440000  0.25000000  1.0 -0.5465541402
O  O11  1  0.98760000  0.17770000  0.25000000  1.0 -0.4451626012
O  O12  1  0.04970000  0.03240000  0.25000000  1.0 -0.4328285227
O  O13  1  0.66690000  0.87730000  0.75000000  1.0 -0.5642978916
O  O14  1  0.52630000  0.74560000  0.75000000  1.0 -0.5465541402
O  O15  1  0.01240000  0.82230000  0.75000000  1.0 -0.4448506603
O  O16  1  0.95030000  0.96760000  0.75000000  1.0 -0.4328285227
