# DDEC6 charges by PACMAN v1.1 (https://github.com/mtap-research/PACMAN-charge/)
data_XEVZAC04_FSR_pacman
_symmetry_space_group_name_H-M   'P 1'
_cell_length_a   9.73660000
_cell_length_b   13.31510000
_cell_length_c   22.19050000
_cell_angle_alpha   90.00000000
_cell_angle_beta   90.00000000
_cell_angle_gamma   90.00000000
_symmetry_Int_Tables_number   1
_chemical_formula_structural   ZnH14C20(NO)4
_chemical_formula_sum   'Zn4 H56 C80 N16 O16'
_cell_volume   2876.86080293
_cell_formula_units_Z   4
loop_
 _symmetry_equiv_pos_site_id
 _symmetry_equiv_pos_as_xyz
  1  'x, y, z'
loop_
 _atom_site_type_symbol
 _atom_site_label
 _atom_site_symmetry_multiplicity
 _atom_site_fract_x
 _atom_site_fract_y
 _atom_site_fract_z
 _atom_site_occupancy
 _atom_site_charge
Zn  Zn1  1  0.31954000  0.71505000  0.25000000  1.0 0.7430570005
Zn  Zn2  1  0.68046000  0.28495000  0.75000000  1.0 0.7430570005
Zn  Zn3  1  0.81954000  0.78495000  0.75000000  1.0 0.7430570005
Zn  Zn4  1  0.18046000  0.21505000  0.25000000  1.0 0.7430570005
H  H1  1  0.16759000  0.90250000  0.30308000  1.0 0.1234707006
H  H2  1  0.44787000  0.92098000  0.43299000  1.0 0.1293158973
H  H3  1  0.48540000  0.76361000  0.37521000  1.0 0.1293158973
H  H4  1  0.30024000  0.08588000  0.40551000  1.0 0.1415388105
H  H5  1  0.18223000  0.07230000  0.35585000  1.0 0.1415388105
H  H6  1  0.83241000  0.09750000  0.80308000  1.0 0.1234707006
H  H7  1  0.55213000  0.07902000  0.93299000  1.0 0.1293158973
H  H8  1  0.51460000  0.23639000  0.87521000  1.0 0.1293158973
H  H9  1  0.69976000  0.91412000  0.90551000  1.0 0.1293158973
H  H10  1  0.81777000  0.92770000  0.85585000  1.0 0.1415388105
H  H11  1  0.83241000  0.09750000  0.69692000  1.0 0.1234707006
H  H12  1  0.55213000  0.07902000  0.56701000  1.0 0.1293158973
H  H13  1  0.51460000  0.23639000  0.62479000  1.0 0.1293158973
H  H14  1  0.69976000  0.91412000  0.59449000  1.0 0.1293158973
H  H15  1  0.81777000  0.92770000  0.64415000  1.0 0.1415388105
H  H16  1  0.16759000  0.90250000  0.19692000  1.0 0.1234707006
H  H17  1  0.44787000  0.92098000  0.06701000  1.0 0.1293158973
H  H18  1  0.48540000  0.76361000  0.12479000  1.0 0.1293158973
H  H19  1  0.30024000  0.08588000  0.09449000  1.0 0.1293158973
H  H20  1  0.18223000  0.07230000  0.14415000  1.0 0.1415388105
H  H21  1  0.04918000  0.46273000  0.25000000  1.0 0.0980983367
H  H22  1  0.86980000  0.34754000  0.25000000  1.0 0.1076550052
H  H23  1  0.64252000  0.40387000  0.25000000  1.0 0.1293158973
H  H24  1  0.77607000  0.69198000  0.25000000  1.0 0.1234707006
H  H25  1  0.95082000  0.53727000  0.75000000  1.0 0.0980983367
H  H26  1  0.13020000  0.65246000  0.75000000  1.0 0.1076550052
H  H27  1  0.35748000  0.59613000  0.75000000  1.0 0.1293158973
H  H28  1  0.22393000  0.30802000  0.75000000  1.0 0.1234707006
H  H29  1  0.66759000  0.59750000  0.69692000  1.0 0.1234707006
H  H30  1  0.94787000  0.57902000  0.56701000  1.0 0.1293158973
H  H31  1  0.98540000  0.73639000  0.62479000  1.0 0.1293158973
H  H32  1  0.80024000  0.41412000  0.59449000  1.0 0.1293158973
H  H33  1  0.68223000  0.42770000  0.64415000  1.0 0.1415388105
H  H34  1  0.33241000  0.40250000  0.19692000  1.0 0.1234707006
H  H35  1  0.05213000  0.42098000  0.06701000  1.0 0.1293158973
H  H36  1  0.01460000  0.26361000  0.12479000  1.0 0.1293158973
H  H37  1  0.19976000  0.58588000  0.09449000  1.0 0.1293158973
H  H38  1  0.31777000  0.57230000  0.14415000  1.0 0.1415388105
H  H39  1  0.33241000  0.40250000  0.30308000  1.0 0.1234707006
H  H40  1  0.05213000  0.42098000  0.43299000  1.0 0.1293158973
H  H41  1  0.01460000  0.26361000  0.37521000  1.0 0.1293158973
H  H42  1  0.19976000  0.58588000  0.40551000  1.0 0.1415388105
H  H43  1  0.31777000  0.57230000  0.35585000  1.0 0.1415388105
H  H44  1  0.66759000  0.59750000  0.80308000  1.0 0.1234707006
H  H45  1  0.94787000  0.57902000  0.93299000  1.0 0.1293158973
H  H46  1  0.98540000  0.73639000  0.87521000  1.0 0.1293158973
H  H47  1  0.80024000  0.41412000  0.90551000  1.0 0.1293158973
H  H48  1  0.68223000  0.42770000  0.85585000  1.0 0.1415388105
H  H49  1  0.54918000  0.03727000  0.75000000  1.0 0.0980983367
H  H50  1  0.36980000  0.15246000  0.75000000  1.0 0.1076550052
H  H51  1  0.14252000  0.09613000  0.75000000  1.0 0.1293158973
H  H52  1  0.27607000  0.80802000  0.75000000  1.0 0.1293158973
H  H53  1  0.45082000  0.96273000  0.25000000  1.0 0.0980983367
H  H54  1  0.63020000  0.84754000  0.25000000  1.0 0.1076550052
H  H55  1  0.85748000  0.90387000  0.25000000  1.0 0.1293158973
H  H56  1  0.72393000  0.19198000  0.25000000  1.0 0.1234707006
C  C1  1  0.24370000  0.88680000  0.32817000  1.0 0.1076550052
C  C2  1  0.39630000  0.89800000  0.39940000  1.0 -0.1093939093
C  C3  1  0.41560000  0.81180000  0.36759000  1.0 -0.038624939
C  C4  1  0.22680000  0.04040000  0.39110000  1.0 -0.1236473406
C  C5  1  0.12590000  0.02610000  0.43868000  1.0 -0.0707918387
C  C6  1  0.04610000  0.00950000  0.47742000  1.0 -0.0490452252
C  C7  1  0.75630000  0.11320000  0.82817000  1.0 0.1076550052
C  C8  1  0.60370000  0.10200000  0.89940000  1.0 -0.1093939093
C  C9  1  0.58440000  0.18820000  0.86759000  1.0 -0.038624939
C  C10  1  0.77320000  0.95960000  0.89110000  1.0 -0.1236473406
C  C11  1  0.87410000  0.97390000  0.93868000  1.0 -0.0707918387
C  C12  1  0.95390000  0.99050000  0.97742000  1.0 -0.0490452252
C  C13  1  0.75630000  0.11320000  0.67183000  1.0 0.1076550052
C  C14  1  0.60370000  0.10200000  0.60060000  1.0 -0.1093939093
C  C15  1  0.58440000  0.18820000  0.63241000  1.0 -0.038624939
C  C16  1  0.77320000  0.95960000  0.60890000  1.0 -0.1236473406
C  C17  1  0.87410000  0.97390000  0.56132000  1.0 -0.0707918387
C  C18  1  0.95390000  0.99050000  0.52258000  1.0 -0.0490452252
C  C19  1  0.24370000  0.88680000  0.17183000  1.0 0.1076550052
C  C20  1  0.39630000  0.89800000  0.10060000  1.0 -0.1093939093
C  C21  1  0.41560000  0.81180000  0.13241000  1.0 -0.038624939
C  C22  1  0.22680000  0.04040000  0.10890000  1.0 -0.1236473406
C  C23  1  0.12590000  0.02610000  0.06132000  1.0 -0.0707918387
C  C24  1  0.04610000  0.00950000  0.02258000  1.0 -0.0490452252
C  C25  1  0.04870000  0.66110000  0.25000000  1.0 0.5432775793
C  C26  1  0.93070000  0.58820000  0.25000000  1.0 -0.0153427944
C  C27  1  0.95690000  0.48600000  0.25000000  1.0 -0.1093939093
C  C28  1  0.85070000  0.41750000  0.25000000  1.0 -0.091951373
C  C29  1  0.71580000  0.45100000  0.25000000  1.0 -0.1019502925
C  C30  1  0.68770000  0.55300000  0.25000000  1.0 -0.0091161788
C  C31  1  0.79510000  0.62200000  0.25000000  1.0 -0.1425949903
C  C32  1  0.53950000  0.58720000  0.25000000  1.0 0.5080971597
C  C33  1  0.95130000  0.33890000  0.75000000  1.0 0.5432775793
C  C34  1  0.06930000  0.41180000  0.75000000  1.0 -0.0153427944
C  C35  1  0.04310000  0.51400000  0.75000000  1.0 -0.1093939093
C  C36  1  0.14930000  0.58250000  0.75000000  1.0 -0.091951373
C  C37  1  0.28420000  0.54900000  0.75000000  1.0 -0.1019502925
C  C38  1  0.31230000  0.44700000  0.75000000  1.0 -0.0091161788
C  C39  1  0.20490000  0.37800000  0.75000000  1.0 -0.1425949903
C  C40  1  0.46050000  0.41280000  0.75000000  1.0 0.5080971597
C  C41  1  0.74370000  0.61320000  0.67183000  1.0 0.1076550052
C  C42  1  0.89630000  0.60200000  0.60060000  1.0 -0.1093939093
C  C43  1  0.91560000  0.68820000  0.63241000  1.0 -0.038624939
C  C44  1  0.72680000  0.45960000  0.60890000  1.0 -0.1236473406
C  C45  1  0.62590000  0.47390000  0.56132000  1.0 -0.0707918387
C  C46  1  0.54610000  0.49050000  0.52258000  1.0 -0.0490452252
C  C47  1  0.25630000  0.38680000  0.17183000  1.0 0.1076550052
C  C48  1  0.10370000  0.39800000  0.10060000  1.0 -0.1093939093
C  C49  1  0.08440000  0.31180000  0.13241000  1.0 -0.038624939
C  C50  1  0.27320000  0.54040000  0.10890000  1.0 -0.1236473406
C  C51  1  0.37410000  0.52610000  0.06132000  1.0 -0.0707918387
C  C52  1  0.45390000  0.50950000  0.02258000  1.0 -0.0490452252
C  C53  1  0.25630000  0.38680000  0.32817000  1.0 0.1076550052
C  C54  1  0.10370000  0.39800000  0.39940000  1.0 -0.1093939093
C  C55  1  0.08440000  0.31180000  0.36759000  1.0 -0.038624939
C  C56  1  0.27320000  0.54040000  0.39110000  1.0 -0.1236473406
C  C57  1  0.37410000  0.52610000  0.43868000  1.0 -0.0707918387
C  C58  1  0.45390000  0.50950000  0.47742000  1.0 -0.0490452252
C  C59  1  0.74370000  0.61320000  0.82817000  1.0 0.1076550052
C  C60  1  0.89630000  0.60200000  0.89940000  1.0 -0.1093939093
C  C61  1  0.91560000  0.68820000  0.86759000  1.0 -0.038624939
C  C62  1  0.72680000  0.45960000  0.89110000  1.0 -0.1236473406
C  C63  1  0.62590000  0.47390000  0.93868000  1.0 -0.0707918387
C  C64  1  0.54610000  0.49050000  0.97742000  1.0 -0.0490452252
C  C65  1  0.54870000  0.83890000  0.75000000  1.0 0.5432775793
C  C66  1  0.43070000  0.91180000  0.75000000  1.0 -0.0153427944
C  C67  1  0.45690000  0.01400000  0.75000000  1.0 -0.1093939093
C  C68  1  0.35070000  0.08250000  0.75000000  1.0 -0.091951373
C  C69  1  0.21580000  0.04900000  0.75000000  1.0 -0.1019502925
C  C70  1  0.18770000  0.94700000  0.75000000  1.0 -0.0091161788
C  C71  1  0.29510000  0.87800000  0.75000000  1.0 -0.1425949903
C  C72  1  0.03950000  0.91280000  0.75000000  1.0 0.5080971597
C  C73  1  0.45130000  0.16110000  0.25000000  1.0 0.5432775793
C  C74  1  0.56930000  0.08820000  0.25000000  1.0 -0.0091161788
C  C75  1  0.54310000  0.98600000  0.25000000  1.0 -0.1093939093
C  C76  1  0.64930000  0.91750000  0.25000000  1.0 -0.091951373
C  C77  1  0.78420000  0.95100000  0.25000000  1.0 -0.1019502925
C  C78  1  0.81230000  0.05300000  0.25000000  1.0 -0.0091161788
C  C79  1  0.70490000  0.12200000  0.25000000  1.0 -0.1425949903
C  C80  1  0.96050000  0.08720000  0.25000000  1.0 0.5080971597
N  N1  1  0.31900000  0.80506000  0.32294000  1.0 -0.2940187277
N  N2  1  0.28750000  0.94430000  0.37277000  1.0 0.0585623858
N  N3  1  0.68100000  0.19494000  0.82294000  1.0 -0.2940187277
N  N4  1  0.71250000  0.05570000  0.87277000  1.0 0.0585623858
N  N5  1  0.68100000  0.19494000  0.67706000  1.0 -0.2940187277
N  N6  1  0.71250000  0.05570000  0.62723000  1.0 0.0585623858
N  N7  1  0.31900000  0.80506000  0.17706000  1.0 -0.2940187277
N  N8  1  0.28750000  0.94430000  0.12723000  1.0 0.0585623858
N  N9  1  0.81900000  0.69494000  0.67706000  1.0 -0.2940187277
N  N10  1  0.78750000  0.55570000  0.62723000  1.0 0.0585623858
N  N11  1  0.18100000  0.30506000  0.17706000  1.0 -0.2940187277
N  N12  1  0.21250000  0.44430000  0.12723000  1.0 0.0585623858
N  N13  1  0.18100000  0.30506000  0.32294000  1.0 -0.2940187277
N  N14  1  0.21250000  0.44430000  0.37277000  1.0 0.0585623858
N  N15  1  0.81900000  0.69494000  0.82294000  1.0 -0.2940187277
N  N16  1  0.78750000  0.55570000  0.87277000  1.0 0.0585623858
O  O1  1  0.16830000  0.62090000  0.25000000  1.0 -0.565695745
O  O2  1  0.02750000  0.75340000  0.25000000  1.0 -0.5575722875
O  O3  1  0.45060000  0.52780000  0.25000000  1.0 -0.4603189649
O  O4  1  0.51430000  0.67590000  0.25000000  1.0 -0.4754697802
O  O5  1  0.83170000  0.37910000  0.75000000  1.0 -0.565695745
O  O6  1  0.97250000  0.24660000  0.75000000  1.0 -0.5575722875
O  O7  1  0.54940000  0.47220000  0.75000000  1.0 -0.4603189649
O  O8  1  0.48570000  0.32410000  0.75000000  1.0 -0.4754697802
O  O9  1  0.66830000  0.87910000  0.75000000  1.0 -0.565695745
O  O10  1  0.52750000  0.74660000  0.75000000  1.0 -0.5575722875
O  O11  1  0.95060000  0.97220000  0.75000000  1.0 -0.4603189649
O  O12  1  0.01430000  0.82410000  0.75000000  1.0 -0.4754697802
O  O13  1  0.33170000  0.12090000  0.25000000  1.0 -0.565695745
O  O14  1  0.47250000  0.25340000  0.25000000  1.0 -0.5575722875
O  O15  1  0.04940000  0.02780000  0.25000000  1.0 -0.4603189649
O  O16  1  0.98570000  0.17590000  0.25000000  1.0 -0.4754697802
