# DDEC6 charges by PACMAN v1.1 (https://github.com/mtap-research/PACMAN-charge/)
data_XEVZAC_ASR_pacman
_symmetry_space_group_name_H-M   'P 1'
_cell_length_a   9.72240000
_cell_length_b   12.97340000
_cell_length_c   22.47780000
_cell_angle_alpha   90.00000000
_cell_angle_beta   90.00000000
_cell_angle_gamma   90.00000000
_symmetry_Int_Tables_number   1
_chemical_formula_structural   ZnH14C20(NO)4
_chemical_formula_sum   'Zn4 H56 C80 N16 O16'
_cell_volume   2835.18300023
_cell_formula_units_Z   4
loop_
 _symmetry_equiv_pos_site_id
 _symmetry_equiv_pos_as_xyz
  1  'x, y, z'
loop_
 _atom_site_type_symbol
 _atom_site_label
 _atom_site_symmetry_multiplicity
 _atom_site_fract_x
 _atom_site_fract_y
 _atom_site_fract_z
 _atom_site_occupancy
 _atom_site_charge
Zn  Zn1  1  0.31563000  0.77743000  0.65400000  1.0 0.7653836804
Zn  Zn2  1  0.68437000  0.22257000  0.15400000  1.0 0.7653836804
Zn  Zn3  1  0.18437000  0.27743000  0.65400000  1.0 0.7653836804
Zn  Zn4  1  0.81563000  0.72257000  0.15400000  1.0 0.7653836804
H  H1  1  0.21319000  0.57176000  0.71055000  1.0 0.1311034682
H  H2  1  0.46079000  0.77527000  0.78666000  1.0 0.1311034682
H  H3  1  0.44930000  0.62370000  0.85316000  1.0 0.1311034682
H  H4  1  0.35986000  0.42561000  0.82890000  1.0 0.138988136
H  H5  1  0.24687000  0.41672000  0.77717000  1.0 0.1518993723
H  H6  1  0.85688000  0.59237000  0.05301000  1.0 0.138988136
H  H7  1  0.74026000  0.61286000  0.00403000  1.0 0.138988136
H  H8  1  0.85412000  0.41660000  0.10589000  1.0 0.1311034682
H  H9  1  0.56573000  0.45587000  0.98109000  1.0 0.138988136
H  H10  1  0.51544000  0.29581000  0.03666000  1.0 0.138988136
H  H11  1  0.63687000  0.09302000  0.68006000  1.0 0.1208414967
H  H12  1  0.86386000  0.15365000  0.67282000  1.0 0.1094067293
H  H13  1  0.04453000  0.03789000  0.65843000  1.0 0.1000270835
H  H14  1  0.77249000  0.80092000  0.65107000  1.0 0.1208414967
H  H15  1  0.78681000  0.42824000  0.21055000  1.0 0.1311034682
H  H16  1  0.53921000  0.22473000  0.28666000  1.0 0.1311034682
H  H17  1  0.55070000  0.37630000  0.35316000  1.0 0.1311034682
H  H18  1  0.64014000  0.57439000  0.32890000  1.0 0.138988136
H  H19  1  0.75313000  0.58328000  0.27717000  1.0 0.1518993723
H  H20  1  0.14312000  0.40763000  0.55301000  1.0 0.138988136
H  H21  1  0.25974000  0.38714000  0.50403000  1.0 0.138988136
H  H22  1  0.14588000  0.58340000  0.60589000  1.0 0.1311034682
H  H23  1  0.43427000  0.54413000  0.48109000  1.0 0.138988136
H  H24  1  0.48456000  0.70419000  0.53666000  1.0 0.138988136
H  H25  1  0.36313000  0.90698000  0.18006000  1.0 0.1208414967
H  H26  1  0.13614000  0.84635000  0.17282000  1.0 0.1094067293
H  H27  1  0.95547000  0.96211000  0.15843000  1.0 0.1000270835
H  H28  1  0.22751000  0.19908000  0.15107000  1.0 0.1208414967
H  H29  1  0.28681000  0.07176000  0.71055000  1.0 0.1311034682
H  H30  1  0.03921000  0.27527000  0.78666000  1.0 0.1311034682
H  H31  1  0.05070000  0.12370000  0.85316000  1.0 0.1311034682
H  H32  1  0.14014000  0.92561000  0.82890000  1.0 0.138988136
H  H33  1  0.25313000  0.91672000  0.77717000  1.0 0.1518993723
H  H34  1  0.64312000  0.09237000  0.05301000  1.0 0.138988136
H  H35  1  0.75974000  0.11286000  0.00403000  1.0 0.138988136
H  H36  1  0.64588000  0.91660000  0.10589000  1.0 0.1311034682
H  H37  1  0.93427000  0.95587000  0.98109000  1.0 0.138988136
H  H38  1  0.98456000  0.79581000  0.03666000  1.0 0.138988136
H  H39  1  0.86313000  0.59302000  0.68006000  1.0 0.1208414967
H  H40  1  0.63614000  0.65365000  0.67282000  1.0 0.1094067293
H  H41  1  0.45547000  0.53789000  0.65843000  1.0 0.1000270835
H  H42  1  0.72751000  0.30092000  0.65107000  1.0 0.1208414967
H  H43  1  0.71319000  0.92824000  0.21055000  1.0 0.1311034682
H  H44  1  0.96079000  0.72473000  0.28666000  1.0 0.1311034682
H  H45  1  0.94930000  0.87630000  0.35316000  1.0 0.1311034682
H  H46  1  0.85986000  0.07439000  0.32890000  1.0 0.138988136
H  H47  1  0.74687000  0.08328000  0.27717000  1.0 0.1518993723
H  H48  1  0.35688000  0.90763000  0.55301000  1.0 0.138988136
H  H49  1  0.24026000  0.88714000  0.50403000  1.0 0.138988136
H  H50  1  0.35412000  0.08340000  0.60589000  1.0 0.1311034682
H  H51  1  0.06573000  0.04413000  0.48109000  1.0 0.138988136
H  H52  1  0.01544000  0.20419000  0.53666000  1.0 0.138988136
H  H53  1  0.13687000  0.40698000  0.18006000  1.0 0.1208414967
H  H54  1  0.36386000  0.34635000  0.17282000  1.0 0.1094067293
H  H55  1  0.54453000  0.46211000  0.15843000  1.0 0.1000270835
H  H56  1  0.27249000  0.69908000  0.15107000  1.0 0.1208414967
C  C1  1  0.27430000  0.60410000  0.73773000  1.0 0.1000270835
C  C2  1  0.40870000  0.71460000  0.77958000  1.0 -0.030626312
C  C3  1  0.40370000  0.63170000  0.81607000  1.0 -0.1118017294
C  C4  1  0.27930000  0.45990000  0.81065000  1.0 -0.1118017294
C  C5  1  0.16910000  0.47060000  0.85508000  1.0 -0.0613919631
C  C6  1  0.08230000  0.48800000  0.89137000  1.0 -0.0519955632
C  C7  1  0.98630000  0.51230000  0.93420000  1.0 -0.037427823
C  C8  1  0.90530000  0.53600000  0.97170000  1.0 -0.0613919631
C  C9  1  0.80720000  0.56150000  0.01895000  1.0 -0.1118017294
C  C10  1  0.77480000  0.40610000  0.08196000  1.0 0.1094067293
C  C11  1  0.61710000  0.42830000  0.01333000  1.0 -0.1118017294
C  C12  1  0.59070000  0.34080000  0.04389000  1.0 -0.030626312
C  C13  1  0.53630000  0.90420000  0.66869000  1.0 0.5446537929
C  C14  1  0.68330000  0.94140000  0.66518000  1.0 -0.0127369314
C  C15  1  0.71010000  0.04630000  0.67267000  1.0 -0.0960536105
C  C16  1  0.84530000  0.08200000  0.66924000  1.0 -0.0944267576
C  C17  1  0.95270000  0.01310000  0.66058000  1.0 -0.1175078106
C  C18  1  0.92710000  0.90799000  0.65504000  1.0 -0.0207825144
C  C19  1  0.79120000  0.87223000  0.65628000  1.0 -0.1346980957
C  C20  1  0.04540000  0.83372000  0.64954000  1.0 0.5473249155
C  C21  1  0.72570000  0.39590000  0.23773000  1.0 0.1000270835
C  C22  1  0.59130000  0.28540000  0.27958000  1.0 -0.030626312
C  C23  1  0.59630000  0.36830000  0.31607000  1.0 -0.1118017294
C  C24  1  0.72070000  0.54010000  0.31065000  1.0 -0.1118017294
C  C25  1  0.83090000  0.52940000  0.35508000  1.0 -0.0613919631
C  C26  1  0.91770000  0.51200000  0.39137000  1.0 -0.0519955632
C  C27  1  0.01370000  0.48770000  0.43420000  1.0 -0.037427823
C  C28  1  0.09470000  0.46400000  0.47170000  1.0 -0.0613919631
C  C29  1  0.19280000  0.43850000  0.51895000  1.0 -0.1118017294
C  C30  1  0.22520000  0.59390000  0.58196000  1.0 0.1094067293
C  C31  1  0.38290000  0.57170000  0.51333000  1.0 -0.1118017294
C  C32  1  0.40930000  0.65920000  0.54389000  1.0 -0.030626312
C  C33  1  0.46370000  0.09580000  0.16869000  1.0 0.5446537929
C  C34  1  0.31670000  0.05860000  0.16518000  1.0 -0.0127369314
C  C35  1  0.28990000  0.95370000  0.17267000  1.0 -0.0960536105
C  C36  1  0.15470000  0.91800000  0.16924000  1.0 -0.0944267576
C  C37  1  0.04730000  0.98690000  0.16058000  1.0 -0.1175078106
C  C38  1  0.07290000  0.09201000  0.15504000  1.0 -0.0207825144
C  C39  1  0.20880000  0.12777000  0.15628000  1.0 -0.1346980957
C  C40  1  0.95460000  0.16628000  0.14954000  1.0 0.5473249155
C  C41  1  0.22570000  0.10410000  0.73773000  1.0 0.1000270835
C  C42  1  0.09130000  0.21460000  0.77958000  1.0 -0.030626312
C  C43  1  0.09630000  0.13170000  0.81607000  1.0 -0.1118017294
C  C44  1  0.22070000  0.95990000  0.81065000  1.0 -0.1118017294
C  C45  1  0.33090000  0.97060000  0.85508000  1.0 -0.0613919631
C  C46  1  0.41770000  0.98800000  0.89137000  1.0 -0.0519955632
C  C47  1  0.51370000  0.01230000  0.93420000  1.0 -0.037427823
C  C48  1  0.59470000  0.03600000  0.97170000  1.0 -0.0613919631
C  C49  1  0.69280000  0.06150000  0.01895000  1.0 -0.1118017294
C  C50  1  0.72520000  0.90610000  0.08196000  1.0 0.1094067293
C  C51  1  0.88290000  0.92830000  0.01333000  1.0 -0.1118017294
C  C52  1  0.90930000  0.84080000  0.04389000  1.0 -0.030626312
C  C53  1  0.96370000  0.40420000  0.66869000  1.0 0.5446537929
C  C54  1  0.81670000  0.44140000  0.66518000  1.0 -0.0127369314
C  C55  1  0.78990000  0.54630000  0.67267000  1.0 -0.0960536105
C  C56  1  0.65470000  0.58200000  0.66924000  1.0 -0.0944267576
C  C57  1  0.54730000  0.51310000  0.66058000  1.0 -0.1175078106
C  C58  1  0.57290000  0.40799000  0.65504000  1.0 -0.0207825144
C  C59  1  0.70880000  0.37223000  0.65628000  1.0 -0.1346980957
C  C60  1  0.45460000  0.33372000  0.64954000  1.0 0.5473249155
C  C61  1  0.77430000  0.89590000  0.23773000  1.0 0.1000270835
C  C62  1  0.90870000  0.78540000  0.27958000  1.0 -0.030626312
C  C63  1  0.90370000  0.86830000  0.31607000  1.0 -0.1118017294
C  C64  1  0.77930000  0.04010000  0.31065000  1.0 -0.1118017294
C  C65  1  0.66910000  0.02940000  0.35508000  1.0 -0.0613919631
C  C66  1  0.58230000  0.01200000  0.39137000  1.0 -0.0519955632
C  C67  1  0.48630000  0.98770000  0.43420000  1.0 -0.037427823
C  C68  1  0.40530000  0.96400000  0.47170000  1.0 -0.0613919631
C  C69  1  0.30720000  0.93850000  0.51895000  1.0 -0.1118017294
C  C70  1  0.27480000  0.09390000  0.58196000  1.0 0.1094067293
C  C71  1  0.11710000  0.07170000  0.51333000  1.0 -0.1118017294
C  C72  1  0.09070000  0.15920000  0.54389000  1.0 -0.030626312
C  C73  1  0.03630000  0.59580000  0.16869000  1.0 0.5446537929
C  C74  1  0.18330000  0.55860000  0.16518000  1.0 -0.0127369314
C  C75  1  0.21010000  0.45370000  0.17267000  1.0 -0.0960536105
C  C76  1  0.34530000  0.41800000  0.16924000  1.0 -0.0944267576
C  C77  1  0.45270000  0.48690000  0.16058000  1.0 -0.1175078106
C  C78  1  0.42710000  0.59201000  0.15504000  1.0 -0.0207825144
C  C79  1  0.29120000  0.62777000  0.15628000  1.0 -0.1346980957
C  C80  1  0.54540000  0.66628000  0.14954000  1.0 0.5473249155
N  N1  1  0.32670000  0.69740000  0.73064000  1.0 -0.2867197794
N  N2  1  0.31920000  0.56140000  0.78856000  1.0 0.0585991527
N  N3  1  0.73410000  0.46930000  0.03866000  1.0 0.0585991527
N  N4  1  0.68980000  0.32650000  0.08724000  1.0 -0.2954269451
N  N5  1  0.67330000  0.30260000  0.23064000  1.0 -0.2867197794
N  N6  1  0.68080000  0.43860000  0.28856000  1.0 0.0585991527
N  N7  1  0.26590000  0.53070000  0.53866000  1.0 0.0585991527
N  N8  1  0.31020000  0.67350000  0.58724000  1.0 -0.2954269451
N  N9  1  0.17330000  0.19740000  0.73064000  1.0 -0.2867197794
N  N10  1  0.18080000  0.06140000  0.78856000  1.0 0.0585991527
N  N11  1  0.76590000  0.96930000  0.03866000  1.0 0.0585991527
N  N12  1  0.81020000  0.82650000  0.08724000  1.0 -0.2954269451
N  N13  1  0.82670000  0.80260000  0.23064000  1.0 -0.2867197794
N  N14  1  0.81920000  0.93860000  0.28856000  1.0 0.0585991527
N  N15  1  0.23410000  0.03070000  0.53866000  1.0 0.0585991527
N  N16  1  0.18980000  0.17350000  0.58724000  1.0 -0.2954269451
O  O1  1  0.50570000  0.82536000  0.63705000  1.0 -0.5614380044
O  O2  1  0.45380000  0.94940000  0.70146000  1.0 -0.5466335592
O  O3  1  0.02480000  0.74003000  0.64675000  1.0 -0.5466335592
O  O4  1  0.16592000  0.87602000  0.65051000  1.0 -0.5726408166
O  O5  1  0.49430000  0.17464000  0.13705000  1.0 -0.5614380044
O  O6  1  0.54620000  0.05060000  0.20146000  1.0 -0.5466335592
O  O7  1  0.97520000  0.25997000  0.14675000  1.0 -0.5466335592
O  O8  1  0.83408000  0.12398000  0.15051000  1.0 -0.5726408166
O  O9  1  0.99430000  0.32536000  0.63705000  1.0 -0.5614380044
O  O10  1  0.04620000  0.44940000  0.70146000  1.0 -0.5466335592
O  O11  1  0.47520000  0.24003000  0.64675000  1.0 -0.5466335592
O  O12  1  0.33408000  0.37602000  0.65051000  1.0 -0.5726408166
O  O13  1  0.00570000  0.67464000  0.13705000  1.0 -0.5614380044
O  O14  1  0.95380000  0.55060000  0.20146000  1.0 -0.5466335592
O  O15  1  0.52480000  0.75997000  0.14675000  1.0 -0.5466335592
O  O16  1  0.66592000  0.62398000  0.15051000  1.0 -0.5726408166
