# DDEC6 charges by PACMAN v1.1 (https://github.com/mtap-research/PACMAN-charge/)
data_XEVZAC05_FSR_pacman
_symmetry_space_group_name_H-M   'P 1'
_cell_length_a   9.73390000
_cell_length_b   13.30970000
_cell_length_c   22.21870000
_cell_angle_alpha   90.00000000
_cell_angle_beta   90.00000000
_cell_angle_gamma   90.00000000
_symmetry_Int_Tables_number   1
_chemical_formula_structural   ZnH14C20(NO)4
_chemical_formula_sum   'Zn4 H56 C80 N16 O16'
_cell_volume   2878.55009593
_cell_formula_units_Z   4
loop_
 _symmetry_equiv_pos_site_id
 _symmetry_equiv_pos_as_xyz
  1  'x, y, z'
loop_
 _atom_site_type_symbol
 _atom_site_label
 _atom_site_symmetry_multiplicity
 _atom_site_fract_x
 _atom_site_fract_y
 _atom_site_fract_z
 _atom_site_occupancy
 _atom_site_charge
Zn  Zn1  1  0.81939000  0.28472000  0.75000000  1.0 0.7435583032
Zn  Zn2  1  0.18061000  0.71528000  0.25000000  1.0 0.7435583032
Zn  Zn3  1  0.31939000  0.21528000  0.25000000  1.0 0.7435583032
Zn  Zn4  1  0.68061000  0.78472000  0.75000000  1.0 0.7435583032
H  H1  1  0.66826000  0.09724000  0.69675000  1.0 0.1210753049
H  H2  1  0.98470000  0.23603000  0.62517000  1.0 0.1280031472
H  H3  1  0.94637000  0.07994000  0.56721000  1.0 0.1280031472
H  H4  1  0.79866000  0.91436000  0.59506000  1.0 0.1383068344
H  H5  1  0.68149000  0.92864000  0.64391000  1.0 0.1383068344
H  H6  1  0.33174000  0.90276000  0.19675000  1.0 0.1210753049
H  H7  1  0.01530000  0.76397000  0.12517000  1.0 0.1280031472
H  H8  1  0.05363000  0.92006000  0.06721000  1.0 0.1280031472
H  H9  1  0.20134000  0.08564000  0.09506000  1.0 0.1383068344
H  H10  1  0.31851000  0.07136000  0.14391000  1.0 0.1383068344
H  H11  1  0.33174000  0.90276000  0.30325000  1.0 0.1210753049
H  H12  1  0.01530000  0.76397000  0.37483000  1.0 0.1280031472
H  H13  1  0.05363000  0.92006000  0.43279000  1.0 0.1280031472
H  H14  1  0.20134000  0.08564000  0.40494000  1.0 0.1383068344
H  H15  1  0.31851000  0.07136000  0.35609000  1.0 0.1383068344
H  H16  1  0.66826000  0.09724000  0.80325000  1.0 0.1210753049
H  H17  1  0.98470000  0.23603000  0.87483000  1.0 0.1280031472
H  H18  1  0.94637000  0.07994000  0.93279000  1.0 0.1280031472
H  H19  1  0.79866000  0.91436000  0.90494000  1.0 0.1383068344
H  H20  1  0.68149000  0.92864000  0.85609000  1.0 0.1383068344
H  H21  1  0.27621000  0.30830000  0.75000000  1.0 0.1210753049
H  H22  1  0.54810000  0.53615000  0.75000000  1.0 0.0988661952
H  H23  1  0.36993000  0.65139000  0.75000000  1.0 0.1099220049
H  H24  1  0.14294000  0.59546000  0.75000000  1.0 0.1280031472
H  H25  1  0.72379000  0.69170000  0.25000000  1.0 0.1210753049
H  H26  1  0.45190000  0.46385000  0.25000000  1.0 0.0988661952
H  H27  1  0.63007000  0.34861000  0.25000000  1.0 0.1099220049
H  H28  1  0.85706000  0.40454000  0.25000000  1.0 0.1280031472
H  H29  1  0.16826000  0.40276000  0.30325000  1.0 0.1210753049
H  H30  1  0.48470000  0.26397000  0.37483000  1.0 0.1280031472
H  H31  1  0.44637000  0.42006000  0.43279000  1.0 0.1280031472
H  H32  1  0.29866000  0.58564000  0.40494000  1.0 0.1383068344
H  H33  1  0.18149000  0.57136000  0.35609000  1.0 0.1383068344
H  H34  1  0.83174000  0.59724000  0.80325000  1.0 0.1210753049
H  H35  1  0.51530000  0.73603000  0.87483000  1.0 0.1280031472
H  H36  1  0.55363000  0.57994000  0.93279000  1.0 0.1280031472
H  H37  1  0.70134000  0.41436000  0.90494000  1.0 0.1383068344
H  H38  1  0.81851000  0.42864000  0.85609000  1.0 0.1383068344
H  H39  1  0.83174000  0.59724000  0.69675000  1.0 0.1210753049
H  H40  1  0.51530000  0.73603000  0.62517000  1.0 0.1280031472
H  H41  1  0.55363000  0.57994000  0.56721000  1.0 0.1280031472
H  H42  1  0.70134000  0.41436000  0.59506000  1.0 0.1383068344
H  H43  1  0.81851000  0.42864000  0.64391000  1.0 0.1383068344
H  H44  1  0.16826000  0.40276000  0.19675000  1.0 0.1210753049
H  H45  1  0.48470000  0.26397000  0.12517000  1.0 0.1280031472
H  H46  1  0.44637000  0.42006000  0.06721000  1.0 0.1280031472
H  H47  1  0.29866000  0.58564000  0.09506000  1.0 0.1383068344
H  H48  1  0.18149000  0.57136000  0.14391000  1.0 0.1383068344
H  H49  1  0.77621000  0.19170000  0.25000000  1.0 0.1210753049
H  H50  1  0.04810000  0.96385000  0.25000000  1.0 0.0988661952
H  H51  1  0.86993000  0.84861000  0.25000000  1.0 0.1099220049
H  H52  1  0.64294000  0.90454000  0.25000000  1.0 0.1280031472
H  H53  1  0.22379000  0.80830000  0.75000000  1.0 0.1210753049
H  H54  1  0.95190000  0.03615000  0.75000000  1.0 0.0988661952
H  H55  1  0.13007000  0.15139000  0.75000000  1.0 0.1099220049
H  H56  1  0.35706000  0.09546000  0.75000000  1.0 0.1280031472
C  C1  1  0.74340000  0.11290000  0.67192000  1.0 0.1099220049
C  C2  1  0.91550000  0.18840000  0.63250000  1.0 -0.0419268825
C  C3  1  0.89570000  0.10240000  0.60060000  1.0 -0.1025118281
C  C4  1  0.72620000  0.95980000  0.60910000  1.0 -0.1221731745
C  C5  1  0.62590000  0.97400000  0.56140000  1.0 -0.0736340427
C  C6  1  0.54610000  0.99040000  0.52260000  1.0 -0.0488049624
C  C7  1  0.25660000  0.88710000  0.17192000  1.0 0.1099220049
C  C8  1  0.08450000  0.81160000  0.13250000  1.0 -0.0419268825
C  C9  1  0.10430000  0.89760000  0.10060000  1.0 -0.1025118281
C  C10  1  0.27380000  0.04020000  0.10910000  1.0 -0.1221731745
C  C11  1  0.37410000  0.02600000  0.06140000  1.0 -0.0736340427
C  C12  1  0.45390000  0.00960000  0.02260000  1.0 -0.0488049624
C  C13  1  0.25660000  0.88710000  0.32808000  1.0 0.1099220049
C  C14  1  0.08450000  0.81160000  0.36750000  1.0 -0.0419268825
C  C15  1  0.10430000  0.89760000  0.39940000  1.0 -0.1025118281
C  C16  1  0.27380000  0.04020000  0.39090000  1.0 -0.1221731745
C  C17  1  0.37410000  0.02600000  0.43860000  1.0 -0.0736340427
C  C18  1  0.45390000  0.00960000  0.47740000  1.0 -0.0488049624
C  C19  1  0.74340000  0.11290000  0.82808000  1.0 0.1099220049
C  C20  1  0.91550000  0.18840000  0.86750000  1.0 -0.0419268825
C  C21  1  0.89570000  0.10240000  0.89940000  1.0 -0.1025118281
C  C22  1  0.72620000  0.95980000  0.89090000  1.0 -0.1221731745
C  C23  1  0.62590000  0.97400000  0.93860000  1.0 -0.0736340427
C  C24  1  0.54610000  0.99040000  0.97740000  1.0 -0.0488049624
C  C25  1  0.03930000  0.41240000  0.75000000  1.0 0.5034645802
C  C26  1  0.29500000  0.37760000  0.75000000  1.0 -0.1387785517
C  C27  1  0.18760000  0.44680000  0.75000000  1.0 -0.0082067253
C  C28  1  0.43070000  0.41170000  0.75000000  1.0 -0.0154381555
C  C29  1  0.54850000  0.33860000  0.75000000  1.0 0.5425325489
C  C30  1  0.45670000  0.51330000  0.75000000  1.0 -0.1147437312
C  C31  1  0.35070000  0.58220000  0.75000000  1.0 -0.0901834213
C  C32  1  0.21550000  0.54880000  0.75000000  1.0 -0.1025118281
C  C33  1  0.96070000  0.58760000  0.25000000  1.0 0.5034645802
C  C34  1  0.70500000  0.62240000  0.25000000  1.0 -0.1387785517
C  C35  1  0.81240000  0.55320000  0.25000000  1.0 -0.0082067253
C  C36  1  0.56930000  0.58830000  0.25000000  1.0 -0.0154381555
C  C37  1  0.45150000  0.66140000  0.25000000  1.0 0.5425325489
C  C38  1  0.54330000  0.48670000  0.25000000  1.0 -0.1147437312
C  C39  1  0.64930000  0.41780000  0.25000000  1.0 -0.0901834213
C  C40  1  0.78450000  0.45120000  0.25000000  1.0 -0.1025118281
C  C41  1  0.24340000  0.38710000  0.32808000  1.0 0.1099220049
C  C42  1  0.41550000  0.31160000  0.36750000  1.0 -0.0419268825
C  C43  1  0.39570000  0.39760000  0.39940000  1.0 -0.1025118281
C  C44  1  0.22620000  0.54020000  0.39090000  1.0 -0.1221731745
C  C45  1  0.12590000  0.52600000  0.43860000  1.0 -0.0736340427
C  C46  1  0.04610000  0.50960000  0.47740000  1.0 -0.0488049624
C  C47  1  0.75660000  0.61290000  0.82808000  1.0 0.1099220049
C  C48  1  0.58450000  0.68840000  0.86750000  1.0 -0.0419268825
C  C49  1  0.60430000  0.60240000  0.89940000  1.0 -0.1025118281
C  C50  1  0.77380000  0.45980000  0.89090000  1.0 -0.1221731745
C  C51  1  0.87410000  0.47400000  0.93860000  1.0 -0.0736340427
C  C52  1  0.95390000  0.49040000  0.97740000  1.0 -0.0488049624
C  C53  1  0.75660000  0.61290000  0.67192000  1.0 0.1099220049
C  C54  1  0.58450000  0.68840000  0.63250000  1.0 -0.0419268825
C  C55  1  0.60430000  0.60240000  0.60060000  1.0 -0.1025118281
C  C56  1  0.77380000  0.45980000  0.60910000  1.0 -0.1221731745
C  C57  1  0.87410000  0.47400000  0.56140000  1.0 -0.0736340427
C  C58  1  0.95390000  0.49040000  0.52260000  1.0 -0.0488049624
C  C59  1  0.24340000  0.38710000  0.17192000  1.0 0.1099220049
C  C60  1  0.41550000  0.31160000  0.13250000  1.0 -0.0419268825
C  C61  1  0.39570000  0.39760000  0.10060000  1.0 -0.1025118281
C  C62  1  0.22620000  0.54020000  0.10910000  1.0 -0.1221731745
C  C63  1  0.12590000  0.52600000  0.06140000  1.0 -0.0736340427
C  C64  1  0.04610000  0.50960000  0.02260000  1.0 -0.0488049624
C  C65  1  0.53930000  0.08760000  0.25000000  1.0 0.5034645802
C  C66  1  0.79500000  0.12240000  0.25000000  1.0 -0.1387785517
C  C67  1  0.68760000  0.05320000  0.25000000  1.0 -0.0082067253
C  C68  1  0.93070000  0.08830000  0.25000000  1.0 -0.0154381555
C  C69  1  0.04850000  0.16140000  0.25000000  1.0 0.5425325489
C  C70  1  0.95670000  0.98670000  0.25000000  1.0 -0.1147437312
C  C71  1  0.85070000  0.91780000  0.25000000  1.0 -0.0901834213
C  C72  1  0.71550000  0.95120000  0.25000000  1.0 -0.1025118281
C  C73  1  0.46070000  0.91240000  0.75000000  1.0 0.5034645802
C  C74  1  0.20500000  0.87760000  0.75000000  1.0 -0.1387785517
C  C75  1  0.31240000  0.94680000  0.75000000  1.0 -0.0082067253
C  C76  1  0.06930000  0.91170000  0.75000000  1.0 -0.0154381555
C  C77  1  0.95150000  0.83860000  0.75000000  1.0 0.5425325489
C  C78  1  0.04330000  0.01330000  0.75000000  1.0 -0.1147437312
C  C79  1  0.14930000  0.08220000  0.75000000  1.0 -0.0901834213
C  C80  1  0.28450000  0.04880000  0.75000000  1.0 -0.1025118281
N  N1  1  0.81870000  0.19460000  0.67709000  1.0 -0.2951744043
N  N2  1  0.78750000  0.05590000  0.62722000  1.0 0.0554839379
N  N3  1  0.18130000  0.80540000  0.17709000  1.0 -0.2951744043
N  N4  1  0.21250000  0.94410000  0.12722000  1.0 0.0554839379
N  N5  1  0.18130000  0.80540000  0.32291000  1.0 -0.2951744043
N  N6  1  0.21250000  0.94410000  0.37278000  1.0 0.0554839379
N  N7  1  0.81870000  0.19460000  0.82291000  1.0 -0.2951744043
N  N8  1  0.78750000  0.05590000  0.87278000  1.0 0.0554839379
N  N9  1  0.31870000  0.30540000  0.32291000  1.0 -0.2951744043
N  N10  1  0.28750000  0.44410000  0.37278000  1.0 0.0554839379
N  N11  1  0.68130000  0.69460000  0.82291000  1.0 -0.2951744043
N  N12  1  0.71250000  0.55590000  0.87278000  1.0 0.0554839379
N  N13  1  0.68130000  0.69460000  0.67709000  1.0 -0.2951744043
N  N14  1  0.71250000  0.55590000  0.62722000  1.0 0.0554839379
N  N15  1  0.31870000  0.30540000  0.17709000  1.0 -0.2951744043
N  N16  1  0.28750000  0.44410000  0.12722000  1.0 0.0554839379
O  O1  1  0.01440000  0.32440000  0.75000000  1.0 -0.4665629932
O  O2  1  0.95090000  0.47190000  0.75000000  1.0 -0.456368103
O  O3  1  0.66810000  0.37880000  0.75000000  1.0 -0.56745018
O  O4  1  0.52740000  0.24650000  0.75000000  1.0 -0.5569302284
O  O5  1  0.98560000  0.67560000  0.25000000  1.0 -0.4665629932
O  O6  1  0.04910000  0.52810000  0.25000000  1.0 -0.456368103
O  O7  1  0.33190000  0.62120000  0.25000000  1.0 -0.56745018
O  O8  1  0.47260000  0.75350000  0.25000000  1.0 -0.5569302284
O  O9  1  0.51440000  0.17560000  0.25000000  1.0 -0.4665629932
O  O10  1  0.45090000  0.02810000  0.25000000  1.0 -0.456368103
O  O11  1  0.16810000  0.12120000  0.25000000  1.0 -0.56745018
O  O12  1  0.02740000  0.25350000  0.25000000  1.0 -0.5569302284
O  O13  1  0.48560000  0.82440000  0.75000000  1.0 -0.4665629932
O  O14  1  0.54910000  0.97190000  0.75000000  1.0 -0.456368103
O  O15  1  0.83190000  0.87880000  0.75000000  1.0 -0.56745018
O  O16  1  0.97260000  0.74650000  0.75000000  1.0 -0.5569302284
