# DDEC6 charges by PACMAN v1.1 (https://github.com/mtap-research/PACMAN-charge/)
data_XEVZAC02_FSR_pacman
_symmetry_space_group_name_H-M   'P 1'
_cell_length_a   9.77700000
_cell_length_b   13.29700000
_cell_length_c   22.27300000
_cell_angle_alpha   90.00000000
_cell_angle_beta   90.00000000
_cell_angle_gamma   90.00000000
_symmetry_Int_Tables_number   1
_chemical_formula_structural   ZnH14C20(NO)4
_chemical_formula_sum   'Zn4 H56 C80 N16 O16'
_cell_volume   2895.59621994
_cell_formula_units_Z   4
loop_
 _symmetry_equiv_pos_site_id
 _symmetry_equiv_pos_as_xyz
  1  'x, y, z'
loop_
 _atom_site_type_symbol
 _atom_site_label
 _atom_site_symmetry_multiplicity
 _atom_site_fract_x
 _atom_site_fract_y
 _atom_site_fract_z
 _atom_site_occupancy
 _atom_site_charge
Zn  Zn1  1  0.06787000  0.71694000  0.23174000  1.0 0.7683984325
Zn  Zn2  1  0.43213000  0.28306000  0.73174000  1.0 0.7683984325
Zn  Zn3  1  0.56787000  0.78306000  0.76826000  1.0 0.7683984325
Zn  Zn4  1  0.93213000  0.21694000  0.26826000  1.0 0.7683984325
H  H1  1  0.91729000  0.90332000  0.28871000  1.0 0.1301857648
H  H2  1  0.21856000  0.74656000  0.36166000  1.0 0.1301857648
H  H3  1  0.17487000  0.89432000  0.42722000  1.0 0.1301857648
H  H4  1  0.03111000  0.07058000  0.40339000  1.0 0.139447684
H  H5  1  0.91122000  0.05927000  0.35484000  1.0 0.139447684
H  H6  1  0.53742000  0.90644000  0.63975000  1.0 0.1500939713
H  H7  1  0.42529000  0.89450000  0.58769000  1.0 0.139447684
H  H8  1  0.57549000  0.08640000  0.68303000  1.0 0.1301857648
H  H9  1  0.27679000  0.06024000  0.56091000  1.0 0.1301857648
H  H10  1  0.25414000  0.22518000  0.61206000  1.0 0.139447684
H  H11  1  0.39110000  0.40756000  0.26681000  1.0 0.1301857648
H  H12  1  0.61911000  0.34969000  0.26608000  1.0 0.1067349226
H  H13  1  0.79779000  0.46352000  0.25083000  1.0 0.1015998968
H  H14  1  0.52401000  0.69120000  0.22991000  1.0 0.124419062
H  H15  1  0.58271000  0.09668000  0.78871000  1.0 0.1301857648
H  H16  1  0.28144000  0.25344000  0.86166000  1.0 0.1301857648
H  H17  1  0.32513000  0.10568000  0.92722000  1.0 0.1301857648
H  H18  1  0.46889000  0.92942000  0.90339000  1.0 0.139447684
H  H19  1  0.58878000  0.94073000  0.85484000  1.0 0.139447684
H  H20  1  0.96258000  0.09356000  0.13975000  1.0 0.1500939713
H  H21  1  0.07471000  0.10550000  0.08769000  1.0 0.139447684
H  H22  1  0.92451000  0.91360000  0.18303000  1.0 0.1301857648
H  H23  1  0.22321000  0.93976000  0.06091000  1.0 0.1301857648
H  H24  1  0.24586000  0.77482000  0.11206000  1.0 0.139447684
H  H25  1  0.10890000  0.59244000  0.76681000  1.0 0.1301857648
H  H26  1  0.88089000  0.65031000  0.76608000  1.0 0.1067349226
H  H27  1  0.70221000  0.53648000  0.75083000  1.0 0.1015998968
H  H28  1  0.97599000  0.30880000  0.72991000  1.0 0.124419062
H  H29  1  0.41729000  0.59668000  0.71129000  1.0 0.1301857648
H  H30  1  0.71856000  0.75344000  0.63834000  1.0 0.1301857648
H  H31  1  0.67487000  0.60568000  0.57278000  1.0 0.1301857648
H  H32  1  0.53111000  0.42942000  0.59661000  1.0 0.139447684
H  H33  1  0.41122000  0.44073000  0.64516000  1.0 0.139447684
H  H34  1  0.03742000  0.59356000  0.36025000  1.0 0.1500939713
H  H35  1  0.92529000  0.60550000  0.41231000  1.0 0.139447684
H  H36  1  0.07549000  0.41360000  0.31697000  1.0 0.1301857648
H  H37  1  0.77679000  0.43976000  0.43909000  1.0 0.1301857648
H  H38  1  0.75414000  0.27482000  0.38794000  1.0 0.139447684
H  H39  1  0.89110000  0.09244000  0.73319000  1.0 0.1301857648
H  H40  1  0.11911000  0.15031000  0.73392000  1.0 0.1067349226
H  H41  1  0.29779000  0.03648000  0.74917000  1.0 0.1015998968
H  H42  1  0.02401000  0.80880000  0.77009000  1.0 0.1301857648
H  H43  1  0.08271000  0.40332000  0.21129000  1.0 0.1301857648
H  H44  1  0.78144000  0.24656000  0.13834000  1.0 0.1301857648
H  H45  1  0.82513000  0.39432000  0.07278000  1.0 0.1301857648
H  H46  1  0.96889000  0.57058000  0.09661000  1.0 0.139447684
H  H47  1  0.08878000  0.55927000  0.14516000  1.0 0.139447684
H  H48  1  0.46258000  0.40644000  0.86025000  1.0 0.1500939713
H  H49  1  0.57471000  0.39450000  0.91231000  1.0 0.139447684
H  H50  1  0.42451000  0.58640000  0.81697000  1.0 0.1301857648
H  H51  1  0.72321000  0.56024000  0.93909000  1.0 0.1301857648
H  H52  1  0.74586000  0.72518000  0.88794000  1.0 0.139447684
H  H53  1  0.60890000  0.90756000  0.23319000  1.0 0.1301857648
H  H54  1  0.38089000  0.84969000  0.23392000  1.0 0.1067349226
H  H55  1  0.20221000  0.96352000  0.24917000  1.0 0.1015998968
H  H56  1  0.47599000  0.19120000  0.27009000  1.0 0.124419062
C  C1  1  0.98780000  0.88240000  0.31526000  1.0 0.1015998968
C  C2  1  0.15170000  0.79720000  0.35490000  1.0 -0.0306189539
C  C3  1  0.12800000  0.87810000  0.39110000  1.0 -0.111346822
C  C4  1  0.95930000  0.02480000  0.38810000  1.0 -0.1173342455
C  C5  1  0.86160000  0.00270000  0.43640000  1.0 -0.0603595101
C  C6  1  0.78390000  0.98380000  0.47510000  1.0 -0.0408946783
C  C7  1  0.68970000  0.96380000  0.51960000  1.0 -0.0459063132
C  C8  1  0.60670000  0.94830000  0.55780000  1.0 -0.0603595101
C  C9  1  0.49930000  0.93820000  0.60320000  1.0 -0.111346822
C  C10  1  0.49700000  0.10080000  0.65937000  1.0 0.1067349226
C  C11  1  0.33333333  0.08550000  0.59210000  1.0 -0.111346822
C  C12  1  0.32220000  0.17610000  0.62020000  1.0 -0.0306189539
C  C13  1  0.28780000  0.59000000  0.24881000  1.0 0.54262933
C  C14  1  0.43600000  0.55440000  0.24834000  1.0 -0.0135573018
C  C15  1  0.46390000  0.45320000  0.25940000  1.0 -0.099692279
C  C16  1  0.59980000  0.41880000  0.25950000  1.0 -0.099692279
C  C17  1  0.70590000  0.48670000  0.25002000  1.0 -0.1173342455
C  C18  1  0.67970000  0.58860000  0.23926000  1.0 -0.0186424027
C  C19  1  0.54340000  0.62250000  0.23789000  1.0 -0.1431273869
C  C20  1  0.79700000  0.66290000  0.23140000  1.0 0.5494509624
C  C21  1  0.51220000  0.11760000  0.81526000  1.0 0.1015998968
C  C22  1  0.34830000  0.20280000  0.85490000  1.0 -0.0306189539
C  C23  1  0.37200000  0.12190000  0.89110000  1.0 -0.111346822
C  C24  1  0.54070000  0.97520000  0.88810000  1.0 -0.111346822
C  C25  1  0.63840000  0.99730000  0.93640000  1.0 -0.0603595101
C  C26  1  0.71610000  0.01620000  0.97510000  1.0 -0.0408946783
C  C27  1  0.81030000  0.03620000  0.01960000  1.0 -0.0459063132
C  C28  1  0.89330000  0.05170000  0.05780000  1.0 -0.0603595101
C  C29  1  0.00070000  0.06180000  0.10320000  1.0 -0.111346822
C  C30  1  0.00300000  0.89920000  0.15937000  1.0 0.1067349226
C  C31  1  0.16670000  0.91450000  0.09210000  1.0 -0.111346822
C  C32  1  0.17780000  0.82390000  0.12020000  1.0 -0.0306189539
C  C33  1  0.21220000  0.41000000  0.74881000  1.0 0.54262933
C  C34  1  0.06400000  0.44560000  0.74834000  1.0 -0.0135573018
C  C35  1  0.03610000  0.54680000  0.75940000  1.0 -0.099692279
C  C36  1  0.90020000  0.58120000  0.75950000  1.0 -0.099692279
C  C37  1  0.79410000  0.51330000  0.75002000  1.0 -0.1173342455
C  C38  1  0.82030000  0.41140000  0.73926000  1.0 -0.0186424027
C  C39  1  0.95660000  0.37750000  0.73789000  1.0 -0.1431273869
C  C40  1  0.70300000  0.33710000  0.73140000  1.0 0.5494509624
C  C41  1  0.48780000  0.61760000  0.68474000  1.0 0.1015998968
C  C42  1  0.65170000  0.70280000  0.64510000  1.0 -0.0306189539
C  C43  1  0.62800000  0.62190000  0.60890000  1.0 -0.111346822
C  C44  1  0.45930000  0.47520000  0.61190000  1.0 -0.111346822
C  C45  1  0.36160000  0.49730000  0.56360000  1.0 -0.0603595101
C  C46  1  0.28390000  0.51620000  0.52490000  1.0 -0.0408946783
C  C47  1  0.18970000  0.53620000  0.48040000  1.0 -0.0459063132
C  C48  1  0.10670000  0.55170000  0.44220000  1.0 -0.0603595101
C  C49  1  0.99930000  0.56180000  0.39680000  1.0 -0.111346822
C  C50  1  0.99700000  0.39920000  0.34063000  1.0 0.1067349226
C  C51  1  0.83330000  0.41450000  0.40790000  1.0 -0.111346822
C  C52  1  0.82220000  0.32390000  0.37980000  1.0 -0.0306189539
C  C53  1  0.78780000  0.91000000  0.75119000  1.0 0.54262933
C  C54  1  0.93600000  0.94560000  0.75166000  1.0 -0.0135573018
C  C55  1  0.96390000  0.04680000  0.74060000  1.0 -0.099692279
C  C56  1  0.09980000  0.08120000  0.74050000  1.0 -0.099692279
C  C57  1  0.20590000  0.01330000  0.74998000  1.0 -0.1173342455
C  C58  1  0.17970000  0.91140000  0.76074000  1.0 -0.0186424027
C  C59  1  0.04340000  0.87750000  0.76211000  1.0 -0.1431273869
C  C60  1  0.29700000  0.83710000  0.76860000  1.0 0.5494509624
C  C61  1  0.01220000  0.38240000  0.18474000  1.0 0.1015998968
C  C62  1  0.84830000  0.29720000  0.14510000  1.0 -0.0306189539
C  C63  1  0.87200000  0.37810000  0.10890000  1.0 -0.111346822
C  C64  1  0.04070000  0.52480000  0.11190000  1.0 -0.1173342455
C  C65  1  0.13840000  0.50270000  0.06360000  1.0 -0.0603595101
C  C66  1  0.21610000  0.48380000  0.02490000  1.0 -0.0408946783
C  C67  1  0.31030000  0.46380000  0.98040000  1.0 -0.0459063132
C  C68  1  0.39330000  0.44830000  0.94220000  1.0 -0.0603595101
C  C69  1  0.50070000  0.43820000  0.89680000  1.0 -0.111346822
C  C70  1  0.50300000  0.60080000  0.84063000  1.0 0.1067349226
C  C71  1  0.66666667  0.58550000  0.90790000  1.0 -0.111346822
C  C72  1  0.67780000  0.67610000  0.87980000  1.0 -0.0306189539
C  C73  1  0.71220000  0.09000000  0.25119000  1.0 0.54262933
C  C74  1  0.56400000  0.05440000  0.25166000  1.0 -0.0135573018
C  C75  1  0.53610000  0.95320000  0.24060000  1.0 -0.099692279
C  C76  1  0.40020000  0.91880000  0.24050000  1.0 -0.099692279
C  C77  1  0.29410000  0.98670000  0.24998000  1.0 -0.1173342455
C  C78  1  0.32030000  0.08860000  0.26074000  1.0 -0.0186424027
C  C79  1  0.45660000  0.12250000  0.26211000  1.0 -0.1431273869
C  C80  1  0.20300000  0.16290000  0.26860000  1.0 0.5494509624
N  N1  1  0.06360000  0.80090000  0.30749000  1.0 -0.2897413908
N  N2  1  0.02340000  0.93170000  0.36531000  1.0 0.0612430764
N  N3  1  0.44330000  0.03810000  0.61828000  1.0 0.0612430764
N  N4  1  0.42550000  0.18550000  0.66234000  1.0 -0.2897413908
N  N5  1  0.43640000  0.19910000  0.80749000  1.0 -0.2897413908
N  N6  1  0.47660000  0.06830000  0.86531000  1.0 0.0612430764
N  N7  1  0.05670000  0.96190000  0.11828000  1.0 0.0612430764
N  N8  1  0.07450000  0.81450000  0.16234000  1.0 -0.2897413908
N  N9  1  0.56360000  0.69910000  0.69251000  1.0 -0.2897413908
N  N10  1  0.52340000  0.56830000  0.63469000  1.0 0.0612430764
N  N11  1  0.94330000  0.46190000  0.38172000  1.0 0.0612430764
N  N12  1  0.92550000  0.31450000  0.33766000  1.0 -0.2897413908
N  N13  1  0.93640000  0.30090000  0.19251000  1.0 -0.2897413908
N  N14  1  0.97660000  0.43170000  0.13469000  1.0 0.0612430764
N  N15  1  0.55670000  0.53810000  0.88172000  1.0 0.0612430764
N  N16  1  0.57450000  0.68550000  0.83766000  1.0 -0.2897413908
O  O1  1  0.26090000  0.67200000  0.22283000  1.0 -0.5523879839
O  O2  1  0.20130000  0.53910000  0.27480000  1.0 -0.5433520688
O  O3  1  0.77570000  0.75464000  0.22819000  1.0 -0.5523879839
O  O4  1  0.91690000  0.62104000  0.23027000  1.0 -0.5776989176
O  O5  1  0.23910000  0.32800000  0.72283000  1.0 -0.5523879839
O  O6  1  0.29870000  0.46090000  0.77480000  1.0 -0.5433520688
O  O7  1  0.72430000  0.24536000  0.72819000  1.0 -0.5523879839
O  O8  1  0.58310000  0.37896000  0.73027000  1.0 -0.5776989176
O  O9  1  0.76090000  0.82800000  0.77717000  1.0 -0.5523879839
O  O10  1  0.70130000  0.96090000  0.72520000  1.0 -0.5433520688
O  O11  1  0.27570000  0.74536000  0.77181000  1.0 -0.5523879839
O  O12  1  0.41690000  0.87896000  0.76973000  1.0 -0.5776989176
O  O13  1  0.73910000  0.17200000  0.27717000  1.0 -0.5523879839
O  O14  1  0.79870000  0.03910000  0.22520000  1.0 -0.5433520688
O  O15  1  0.22430000  0.25464000  0.27181000  1.0 -0.5523879839
O  O16  1  0.08310000  0.12104000  0.26973000  1.0 -0.5776989176
