# DDEC6 charges by PACMAN v1.1 (https://github.com/mtap-research/PACMAN-charge/)
data_XEVZAC01_ASR_pacman
_symmetry_space_group_name_H-M   'P 1'
_cell_length_a   9.70560000
_cell_length_b   13.02570000
_cell_length_c   22.42990000
_cell_angle_alpha   90.00000000
_cell_angle_beta   90.00000000
_cell_angle_gamma   90.00000000
_symmetry_Int_Tables_number   1
_chemical_formula_structural   ZnH14C20(NO)4
_chemical_formula_sum   'Zn4 H56 C80 N16 O16'
_cell_volume   2835.63806460
_cell_formula_units_Z   4
loop_
 _symmetry_equiv_pos_site_id
 _symmetry_equiv_pos_as_xyz
  1  'x, y, z'
loop_
 _atom_site_type_symbol
 _atom_site_label
 _atom_site_symmetry_multiplicity
 _atom_site_fract_x
 _atom_site_fract_y
 _atom_site_fract_z
 _atom_site_occupancy
 _atom_site_charge
Zn  Zn1  1  0.31626000  0.77725000  0.65413000  1.0 0.7613017129
Zn  Zn2  1  0.68374000  0.22275000  0.15413000  1.0 0.7613017129
Zn  Zn3  1  0.18374000  0.27725000  0.65413000  1.0 0.7613017129
Zn  Zn4  1  0.81626000  0.72275000  0.15413000  1.0 0.7613017129
H  H1  1  0.20703000  0.57461000  0.71191000  1.0 0.1306537907
H  H2  1  0.46829000  0.76839000  0.78544000  1.0 0.1306537907
H  H3  1  0.45155000  0.61789000  0.85137000  1.0 0.1306537907
H  H4  1  0.35653000  0.42539000  0.82885000  1.0 0.1306537907
H  H5  1  0.24365000  0.41588000  0.77685000  1.0 0.1471088769
H  H6  1  0.73815000  0.61020000  0.00245000  1.0 0.1418175603
H  H7  1  0.85464000  0.59164000  0.05188000  1.0 0.1418175603
H  H8  1  0.85054000  0.41607000  0.10594000  1.0 0.123106829
H  H9  1  0.56621000  0.45424000  0.98043000  1.0 0.1306537907
H  H10  1  0.51732000  0.29428000  0.03703000  1.0 0.1306537907
H  H11  1  0.63862000  0.09124000  0.67895000  1.0 0.123106829
H  H12  1  0.86479000  0.15226000  0.67052000  1.0 0.1063468101
H  H13  1  0.04528000  0.03534000  0.65731000  1.0 0.0960874823
H  H14  1  0.77283000  0.80060000  0.64950000  1.0 0.123106829
H  H15  1  0.79297000  0.42539000  0.21191000  1.0 0.1306537907
H  H16  1  0.53171000  0.23161000  0.28544000  1.0 0.1306537907
H  H17  1  0.54845000  0.38211000  0.35137000  1.0 0.1306537907
H  H18  1  0.64347000  0.57461000  0.32885000  1.0 0.1306537907
H  H19  1  0.75635000  0.58412000  0.27685000  1.0 0.1471088769
H  H20  1  0.26185000  0.38980000  0.50245000  1.0 0.1418175603
H  H21  1  0.14536000  0.40836000  0.55188000  1.0 0.1418175603
H  H22  1  0.14946000  0.58393000  0.60594000  1.0 0.123106829
H  H23  1  0.43379000  0.54576000  0.48043000  1.0 0.1306537907
H  H24  1  0.48268000  0.70572000  0.53703000  1.0 0.1306537907
H  H25  1  0.36138000  0.90876000  0.17895000  1.0 0.123106829
H  H26  1  0.13521000  0.84774000  0.17052000  1.0 0.1063468101
H  H27  1  0.95472000  0.96466000  0.15731000  1.0 0.0960874823
H  H28  1  0.22717000  0.19940000  0.14950000  1.0 0.123106829
H  H29  1  0.29297000  0.07461000  0.71191000  1.0 0.1306537907
H  H30  1  0.03171000  0.26839000  0.78544000  1.0 0.1306537907
H  H31  1  0.04845000  0.11789000  0.85137000  1.0 0.1306537907
H  H32  1  0.14347000  0.92539000  0.82885000  1.0 0.1306537907
H  H33  1  0.25635000  0.91588000  0.77685000  1.0 0.1471088769
H  H34  1  0.76185000  0.11020000  0.00245000  1.0 0.1418175603
H  H35  1  0.64536000  0.09164000  0.05188000  1.0 0.1418175603
H  H36  1  0.64946000  0.91607000  0.10594000  1.0 0.123106829
H  H37  1  0.93379000  0.95424000  0.98043000  1.0 0.1306537907
H  H38  1  0.98268000  0.79428000  0.03703000  1.0 0.1306537907
H  H39  1  0.86138000  0.59124000  0.67895000  1.0 0.123106829
H  H40  1  0.63521000  0.65226000  0.67052000  1.0 0.1063468101
H  H41  1  0.45472000  0.53534000  0.65731000  1.0 0.0960874823
H  H42  1  0.72717000  0.30060000  0.64950000  1.0 0.123106829
H  H43  1  0.70703000  0.92539000  0.21191000  1.0 0.1306537907
H  H44  1  0.96829000  0.73161000  0.28544000  1.0 0.1306537907
H  H45  1  0.95155000  0.88211000  0.35137000  1.0 0.1306537907
H  H46  1  0.85653000  0.07461000  0.32885000  1.0 0.1306537907
H  H47  1  0.74365000  0.08412000  0.27685000  1.0 0.1471088769
H  H48  1  0.23815000  0.88980000  0.50245000  1.0 0.1418175603
H  H49  1  0.35464000  0.90836000  0.55188000  1.0 0.1418175603
H  H50  1  0.35054000  0.08393000  0.60594000  1.0 0.123106829
H  H51  1  0.06621000  0.04576000  0.48043000  1.0 0.1306537907
H  H52  1  0.01732000  0.20572000  0.53703000  1.0 0.1306537907
H  H53  1  0.13862000  0.40876000  0.17895000  1.0 0.123106829
H  H54  1  0.36479000  0.34774000  0.17052000  1.0 0.1063468101
H  H55  1  0.54528000  0.46466000  0.15731000  1.0 0.0960874823
H  H56  1  0.27283000  0.69940000  0.14950000  1.0 0.123106829
C  C1  1  0.27070000  0.60510000  0.73880000  1.0 0.0960874823
C  C2  1  0.41170000  0.71010000  0.77850000  1.0 -0.0198896669
C  C3  1  0.40400000  0.62780000  0.81480000  1.0 -0.1142673625
C  C4  1  0.27570000  0.45910000  0.81040000  1.0 -0.1170872079
C  C5  1  0.16430000  0.47030000  0.85500000  1.0 -0.0504230058
C  C6  1  0.07950000  0.48930000  0.89090000  1.0 -0.0504230058
C  C7  1  0.98670000  0.51220000  0.93430000  1.0 -0.0504230058
C  C8  1  0.90210000  0.53480000  0.97220000  1.0 -0.0635540543
C  C9  1  0.80550000  0.55970000  0.01790000  1.0 -0.1142673625
C  C10  1  0.77170000  0.40510000  0.08170000  1.0 0.1306537907
C  C11  1  0.61740000  0.42740000  0.01300000  1.0 -0.102668537
C  C12  1  0.59210000  0.33980000  0.04400000  1.0 -0.0346689431
C  C13  1  0.53660000  0.90410000  0.66930000  1.0 0.5346264409
C  C14  1  0.68410000  0.94000000  0.66530000  1.0 -0.0115469882
C  C15  1  0.71200000  0.04460000  0.67180000  1.0 -0.0942049121
C  C16  1  0.84630000  0.08080000  0.66780000  1.0 -0.0942049121
C  C17  1  0.95310000  0.01130000  0.65980000  1.0 -0.1170872079
C  C18  1  0.92640000  0.90700000  0.65540000  1.0 -0.0198896669
C  C19  1  0.79150000  0.87140000  0.65580000  1.0 -0.1337929873
C  C20  1  0.04640000  0.83420000  0.65060000  1.0 0.5515583919
C  C21  1  0.72930000  0.39490000  0.23880000  1.0 0.094744237
C  C22  1  0.58830000  0.28990000  0.27850000  1.0 -0.0198896669
C  C23  1  0.59600000  0.37220000  0.31480000  1.0 -0.1142673625
C  C24  1  0.72430000  0.54090000  0.31040000  1.0 -0.1170872079
C  C25  1  0.83570000  0.52970000  0.35500000  1.0 -0.0504230058
C  C26  1  0.92050000  0.51070000  0.39090000  1.0 -0.0504230058
C  C27  1  0.01330000  0.48780000  0.43430000  1.0 -0.0504230058
C  C28  1  0.09790000  0.46520000  0.47220000  1.0 -0.0654775856
C  C29  1  0.19450000  0.44030000  0.51790000  1.0 -0.1142673625
C  C30  1  0.22830000  0.59490000  0.58170000  1.0 0.1306537907
C  C31  1  0.38260000  0.57260000  0.51300000  1.0 -0.102668537
C  C32  1  0.40790000  0.66020000  0.54400000  1.0 -0.0346689431
C  C33  1  0.46340000  0.09590000  0.16930000  1.0 0.5346264409
C  C34  1  0.31590000  0.06000000  0.16530000  1.0 -0.0115469882
C  C35  1  0.28800000  0.95540000  0.17180000  1.0 -0.0942049121
C  C36  1  0.15370000  0.91920000  0.16780000  1.0 -0.0942049121
C  C37  1  0.04690000  0.98870000  0.15980000  1.0 -0.1170872079
C  C38  1  0.07360000  0.09300000  0.15540000  1.0 -0.0198896669
C  C39  1  0.20850000  0.12860000  0.15580000  1.0 -0.1337929873
C  C40  1  0.95360000  0.16580000  0.15060000  1.0 0.5515583919
C  C41  1  0.22930000  0.10510000  0.73880000  1.0 0.0960874823
C  C42  1  0.08830000  0.21010000  0.77850000  1.0 -0.0198896669
C  C43  1  0.09600000  0.12780000  0.81480000  1.0 -0.1142673625
C  C44  1  0.22430000  0.95910000  0.81040000  1.0 -0.1170872079
C  C45  1  0.33570000  0.97030000  0.85500000  1.0 -0.0504230058
C  C46  1  0.42050000  0.98930000  0.89090000  1.0 -0.0504230058
C  C47  1  0.51330000  0.01220000  0.93430000  1.0 -0.0504230058
C  C48  1  0.59790000  0.03480000  0.97220000  1.0 -0.0635540543
C  C49  1  0.69450000  0.05970000  0.01790000  1.0 -0.1142673625
C  C50  1  0.72830000  0.90510000  0.08170000  1.0 0.1306537907
C  C51  1  0.88260000  0.92740000  0.01300000  1.0 -0.102668537
C  C52  1  0.90790000  0.83980000  0.04400000  1.0 -0.0350111259
C  C53  1  0.96340000  0.40410000  0.66930000  1.0 0.5346264409
C  C54  1  0.81590000  0.44000000  0.66530000  1.0 -0.0115469882
C  C55  1  0.78800000  0.54460000  0.67180000  1.0 -0.0942049121
C  C56  1  0.65370000  0.58080000  0.66780000  1.0 -0.0942049121
C  C57  1  0.54690000  0.51130000  0.65980000  1.0 -0.1170872079
C  C58  1  0.57360000  0.40700000  0.65540000  1.0 -0.0198896669
C  C59  1  0.70850000  0.37140000  0.65580000  1.0 -0.1337929873
C  C60  1  0.45360000  0.33420000  0.65060000  1.0 0.5515583919
C  C61  1  0.77070000  0.89490000  0.23880000  1.0 0.094744237
C  C62  1  0.91170000  0.78990000  0.27850000  1.0 -0.0198896669
C  C63  1  0.90400000  0.87220000  0.31480000  1.0 -0.1142673625
C  C64  1  0.77570000  0.04090000  0.31040000  1.0 -0.1170872079
C  C65  1  0.66430000  0.02970000  0.35500000  1.0 -0.0504230058
C  C66  1  0.57950000  0.01070000  0.39090000  1.0 -0.0504230058
C  C67  1  0.48670000  0.98780000  0.43430000  1.0 -0.0504230058
C  C68  1  0.40210000  0.96520000  0.47220000  1.0 -0.0654775856
C  C69  1  0.30550000  0.94030000  0.51790000  1.0 -0.1142673625
C  C70  1  0.27170000  0.09490000  0.58170000  1.0 0.1306537907
C  C71  1  0.11740000  0.07260000  0.51300000  1.0 -0.102668537
C  C72  1  0.09210000  0.16020000  0.54400000  1.0 -0.0346689431
C  C73  1  0.03660000  0.59590000  0.16930000  1.0 0.5346264409
C  C74  1  0.18410000  0.56000000  0.16530000  1.0 -0.0115469882
C  C75  1  0.21200000  0.45540000  0.17180000  1.0 -0.0942049121
C  C76  1  0.34630000  0.41920000  0.16780000  1.0 -0.0942049121
C  C77  1  0.45310000  0.48870000  0.15980000  1.0 -0.1170872079
C  C78  1  0.42640000  0.59300000  0.15540000  1.0 -0.0198896669
C  C79  1  0.29150000  0.62860000  0.15580000  1.0 -0.1337929873
C  C80  1  0.54640000  0.66580000  0.15060000  1.0 0.5515583919
N  N1  1  0.32830000  0.69840000  0.73130000  1.0 -0.2838200276
N  N2  1  0.31440000  0.56200000  0.78830000  1.0 0.0635779815
N  N3  1  0.73240000  0.46840000  0.03860000  1.0 0.0539280789
N  N4  1  0.69110000  0.32720000  0.08700000  1.0 -0.2838200276
N  N5  1  0.67170000  0.30160000  0.23130000  1.0 -0.2838200276
N  N6  1  0.68560000  0.43800000  0.28830000  1.0 0.0635779815
N  N7  1  0.26760000  0.53160000  0.53860000  1.0 0.0539280789
N  N8  1  0.30890000  0.67280000  0.58700000  1.0 -0.2838200276
N  N9  1  0.17170000  0.19840000  0.73130000  1.0 -0.2838200276
N  N10  1  0.18560000  0.06200000  0.78830000  1.0 0.0635779815
N  N11  1  0.76760000  0.96840000  0.03860000  1.0 0.0539280789
N  N12  1  0.80890000  0.82720000  0.08700000  1.0 -0.2838200276
N  N13  1  0.82830000  0.80160000  0.23130000  1.0 -0.2838200276
N  N14  1  0.81440000  0.93800000  0.28830000  1.0 0.0635779815
N  N15  1  0.23240000  0.03160000  0.53860000  1.0 0.0539280789
N  N16  1  0.19110000  0.17280000  0.58700000  1.0 -0.2838200276
O  O1  1  0.50630000  0.82370000  0.63790000  1.0 -0.56412874
O  O2  1  0.45480000  0.95030000  0.69940000  1.0 -0.5211792422
O  O3  1  0.02460000  0.73950000  0.64940000  1.0 -0.56412874
O  O4  1  0.16650000  0.87640000  0.65050000  1.0 -0.5709608627
O  O5  1  0.49370000  0.17630000  0.13790000  1.0 -0.56412874
O  O6  1  0.54520000  0.04970000  0.19940000  1.0 -0.5211792422
O  O7  1  0.97540000  0.26050000  0.14940000  1.0 -0.56412874
O  O8  1  0.83350000  0.12360000  0.15050000  1.0 -0.5709608627
O  O9  1  0.99370000  0.32370000  0.63790000  1.0 -0.56412874
O  O10  1  0.04520000  0.45030000  0.69940000  1.0 -0.5211792422
O  O11  1  0.47540000  0.23950000  0.64940000  1.0 -0.56412874
O  O12  1  0.33350000  0.37640000  0.65050000  1.0 -0.5709608627
O  O13  1  0.00630000  0.67630000  0.13790000  1.0 -0.56412874
O  O14  1  0.95480000  0.54970000  0.19940000  1.0 -0.5211792422
O  O15  1  0.52460000  0.76050000  0.14940000  1.0 -0.56412874
O  O16  1  0.66650000  0.62360000  0.15050000  1.0 -0.5709608627
