# DDEC6 charges by PACMAN v1.1 (https://github.com/mtap-research/PACMAN-charge/)
data_XEXLAP_ASR_pacman
_symmetry_space_group_name_H-M   'P 1'
_cell_length_a   5.01690000
_cell_length_b   24.98510000
_cell_length_c   20.80260000
_cell_angle_alpha   90.00000000
_cell_angle_beta   98.16350000
_cell_angle_gamma   90.00000000
_symmetry_Int_Tables_number   1
_chemical_formula_structural   MnH12C24(NO2)3
_chemical_formula_sum   'Mn4 H48 C96 N12 O24'
_cell_volume   2581.13638661
_cell_formula_units_Z   4
loop_
 _symmetry_equiv_pos_site_id
 _symmetry_equiv_pos_as_xyz
  1  'x, y, z'
loop_
 _atom_site_type_symbol
 _atom_site_label
 _atom_site_symmetry_multiplicity
 _atom_site_fract_x
 _atom_site_fract_y
 _atom_site_fract_z
 _atom_site_occupancy
 _atom_site_charge
Mn  Mn1  1  0.88220000  0.03955000  0.06154000  1.0 0.9282911608
Mn  Mn2  1  0.11780000  0.53955000  0.43846000  1.0 0.9282911608
Mn  Mn3  1  0.11780000  0.96045000  0.93846000  1.0 0.9282911608
Mn  Mn4  1  0.88220000  0.46045000  0.56154000  1.0 0.9282911608
H  H1  1  0.66000000  0.59760000  0.34160000  1.0 0.0861903245
H  H2  1  0.34000000  0.09760000  0.15840000  1.0 0.0861903245
H  H3  1  0.34000000  0.40240000  0.65840000  1.0 0.0861903245
H  H4  1  0.66000000  0.90240000  0.84160000  1.0 0.0861903245
H  H5  1  0.58750000  0.67550000  0.27920000  1.0 0.0988152539
H  H6  1  0.41250000  0.17550000  0.22080000  1.0 0.0988152539
H  H7  1  0.41250000  0.32450000  0.72080000  1.0 0.0988152539
H  H8  1  0.58750000  0.82450000  0.77920000  1.0 0.0988152539
H  H9  1  0.28990000  0.73680000  0.36980000  1.0 0.0988152539
H  H10  1  0.71010000  0.23680000  0.13020000  1.0 0.0988152539
H  H11  1  0.71010000  0.26320000  0.63020000  1.0 0.0988152539
H  H12  1  0.28990000  0.76320000  0.86980000  1.0 0.0988152539
H  H13  1  0.36250000  0.65890000  0.43220000  1.0 0.0708773735
H  H14  1  0.63750000  0.15890000  0.06780000  1.0 0.0708773735
H  H15  1  0.63750000  0.34110000  0.56780000  1.0 0.0708773735
H  H16  1  0.36250000  0.84110000  0.93220000  1.0 0.0708773735
H  H17  1  0.37270000  0.87740000  0.31270000  1.0 0.1233852806
H  H18  1  0.62730000  0.37740000  0.18730000  1.0 0.1233852806
H  H19  1  0.62730000  0.12260000  0.68730000  1.0 0.1233852806
H  H20  1  0.37270000  0.62260000  0.81270000  1.0 0.1233852806
H  H21  1  0.24580000  0.94880000  0.24380000  1.0 0.1280254463
H  H22  1  0.75420000  0.44880000  0.25620000  1.0 0.1280254463
H  H23  1  0.75420000  0.05120000  0.75620000  1.0 0.1280254463
H  H24  1  0.24580000  0.55120000  0.74380000  1.0 0.1280254463
H  H25  1  0.02860000  0.85930000  0.04320000  1.0 0.1233852806
H  H26  1  0.97140000  0.35930000  0.45680000  1.0 0.1233852806
H  H27  1  0.97140000  0.14070000  0.95680000  1.0 0.1233852806
H  H28  1  0.02860000  0.64070000  0.54320000  1.0 0.1233852806
H  H29  1  0.18190000  0.79400000  0.11770000  1.0 0.1280254463
H  H30  1  0.81810000  0.29400000  0.38230000  1.0 0.1280254463
H  H31  1  0.81810000  0.20600000  0.88230000  1.0 0.1280254463
H  H32  1  0.18190000  0.70600000  0.61770000  1.0 0.1280254463
H  H33  1  0.85200000  0.58810000  0.30160000  1.0 0.0708773735
H  H34  1  0.14800000  0.08810000  0.19840000  1.0 0.0708773735
H  H35  1  0.14800000  0.41190000  0.69840000  1.0 0.0708773735
H  H36  1  0.85200000  0.91190000  0.80160000  1.0 0.0708773735
H  H37  1  0.78510000  0.66940000  0.24590000  1.0 0.1054921562
H  H38  1  0.21490000  0.16940000  0.25410000  1.0 0.1054921562
H  H39  1  0.21490000  0.33060000  0.75410000  1.0 0.1054921562
H  H40  1  0.78510000  0.83060000  0.74590000  1.0 0.1054921562
H  H41  1  0.14770000  0.74800000  0.40510000  1.0 0.0988152539
H  H42  1  0.85230000  0.24800000  0.09490000  1.0 0.0988152539
H  H43  1  0.85230000  0.25200000  0.59490000  1.0 0.0988152539
H  H44  1  0.14770000  0.75200000  0.90510000  1.0 0.0988152539
H  H45  1  0.21460000  0.66666667  0.46080000  1.0 0.0615640658
H  H46  1  0.78540000  0.16667000  0.03920000  1.0 0.0615640658
H  H47  1  0.78540000  0.33333333  0.53920000  1.0 0.0615640658
H  H48  1  0.21460000  0.83333000  0.96080000  1.0 0.0615640658
C  C1  1  0.78790000  0.62580000  0.34730000  1.0 0.0615640658
C  C2  1  0.21210000  0.12580000  0.15270000  1.0 0.0615640658
C  C3  1  0.21210000  0.37420000  0.65270000  1.0 0.0615640658
C  C4  1  0.78790000  0.87420000  0.84730000  1.0 0.0615640658
C  C5  1  0.74480000  0.67210000  0.31020000  1.0 -0.0433716548
C  C6  1  0.25520000  0.17210000  0.18980000  1.0 -0.0433716548
C  C7  1  0.25520000  0.32790000  0.68980000  1.0 -0.0433716548
C  C8  1  0.74480000  0.82790000  0.81020000  1.0 -0.0433716548
C  C9  1  0.93160000  0.71350000  0.31860000  1.0 0.0308303994
C  C10  1  0.06840000  0.21350000  0.18140000  1.0 0.0308303994
C  C11  1  0.06840000  0.28650000  0.68140000  1.0 0.0308303994
C  C12  1  0.93160000  0.78650000  0.81860000  1.0 0.0308303994
C  C13  1  0.16200000  0.70850000  0.36400000  1.0 -0.0220770974
C  C14  1  0.83800000  0.20850000  0.13600000  1.0 -0.0220770974
C  C15  1  0.83800000  0.29150000  0.63600000  1.0 -0.0220770974
C  C16  1  0.16200000  0.79150000  0.86400000  1.0 -0.0220770974
C  C17  1  0.20510000  0.66220000  0.40110000  1.0 0.0708773735
C  C18  1  0.79490000  0.16220000  0.09890000  1.0 0.0708773735
C  C19  1  0.79490000  0.33780000  0.59890000  1.0 0.0708773735
C  C20  1  0.20510000  0.83780000  0.90110000  1.0 0.0708773735
C  C21  1  0.71130000  0.79840000  0.30030000  1.0 0.3230323459
C  C22  1  0.28870000  0.29840000  0.19970000  1.0 0.3230323459
C  C23  1  0.28870000  0.20160000  0.69970000  1.0 0.3230323459
C  C24  1  0.71130000  0.70160000  0.80030000  1.0 0.3230323459
C  C25  1  0.63720000  0.84530000  0.25720000  1.0 -0.0618545453
C  C26  1  0.36280000  0.34530000  0.24280000  1.0 -0.0618545453
C  C27  1  0.36280000  0.15470000  0.74280000  1.0 -0.0618545453
C  C28  1  0.63720000  0.65470000  0.75720000  1.0 -0.0618545453
C  C29  1  0.74570000  0.85050000  0.19850000  1.0 0.0230202021
C  C30  1  0.25430000  0.35050000  0.30150000  1.0 0.0230202021
C  C31  1  0.25430000  0.14950000  0.80150000  1.0 0.0230202021
C  C32  1  0.74570000  0.64950000  0.69850000  1.0 0.0230202021
C  C33  1  0.93720000  0.81310000  0.18420000  1.0 -0.0740449612
C  C34  1  0.06280000  0.31310000  0.31580000  1.0 -0.0740449612
C  C35  1  0.06280000  0.18690000  0.81580000  1.0 -0.0740449612
C  C36  1  0.93720000  0.68690000  0.68420000  1.0 -0.0740449612
C  C37  1  0.02780000  0.76810000  0.22780000  1.0 0.3593836764
C  C38  1  0.97220000  0.26810000  0.27220000  1.0 0.3593836764
C  C39  1  0.97220000  0.23190000  0.77220000  1.0 0.3593836764
C  C40  1  0.02780000  0.73190000  0.72780000  1.0 0.3593836764
C  C41  1  0.44860000  0.88150000  0.27360000  1.0 -0.1096497809
C  C42  1  0.55140000  0.38150000  0.22640000  1.0 -0.1096497809
C  C43  1  0.55140000  0.11850000  0.72640000  1.0 -0.1096497809
C  C44  1  0.44860000  0.61850000  0.77360000  1.0 -0.1096497809
C  C45  1  0.37310000  0.92370000  0.23210000  1.0 -0.103650674
C  C46  1  0.62690000  0.42370000  0.26790000  1.0 -0.103650674
C  C47  1  0.62690000  0.07630000  0.76790000  1.0 -0.103650674
C  C48  1  0.37310000  0.57630000  0.73210000  1.0 -0.103650674
C  C49  1  0.47410000  0.93090000  0.17410000  1.0 -0.0349053328
C  C50  1  0.52590000  0.43090000  0.32590000  1.0 -0.0349053328
C  C51  1  0.52590000  0.06910000  0.82590000  1.0 -0.0349053328
C  C52  1  0.47410000  0.56910000  0.67410000  1.0 -0.0349053328
C  C53  1  0.65590000  0.89340000  0.15550000  1.0 0.05101492
C  C54  1  0.34410000  0.39340000  0.34450000  1.0 0.05101492
C  C55  1  0.34410000  0.10660000  0.84450000  1.0 0.05101492
C  C56  1  0.65590000  0.60660000  0.65550000  1.0 0.05101492
C  C57  1  0.76180000  0.89380000  0.09530000  1.0 -0.0220770974
C  C58  1  0.23820000  0.39380000  0.40470000  1.0 -0.0220770974
C  C59  1  0.23820000  0.10620000  0.90470000  1.0 -0.0220770974
C  C60  1  0.76180000  0.60620000  0.59530000  1.0 -0.0220770974
C  C61  1  0.95610000  0.85710000  0.08290000  1.0 -0.1201696468
C  C62  1  0.04390000  0.35710000  0.41710000  1.0 -0.1201696468
C  C63  1  0.04390000  0.14290000  0.91710000  1.0 -0.1201696468
C  C64  1  0.95610000  0.64290000  0.58290000  1.0 -0.1201696468
C  C65  1  0.04470000  0.81800000  0.12670000  1.0 -0.0886615065
C  C66  1  0.95530000  0.31800000  0.37330000  1.0 -0.0886615065
C  C67  1  0.95530000  0.18200000  0.87330000  1.0 -0.0886615065
C  C68  1  0.04470000  0.68200000  0.62670000  1.0 -0.0886615065
C  C69  1  0.64390000  0.92740000  0.03720000  1.0 0.5856069515
C  C70  1  0.35610000  0.42740000  0.46280000  1.0 0.5856069515
C  C71  1  0.35610000  0.07260000  0.96280000  1.0 0.5856069515
C  C72  1  0.64390000  0.57260000  0.53720000  1.0 0.5856069515
C  C73  1  0.39000000  0.98250000  0.13930000  1.0 0.5713127444
C  C74  1  0.61000000  0.48250000  0.36070000  1.0 0.5713127444
C  C75  1  0.61000000  0.01750000  0.86070000  1.0 0.5713127444
C  C76  1  0.39000000  0.51750000  0.63930000  1.0 0.5713127444
C  C77  1  0.91160000  0.62050000  0.32260000  1.0 0.0804060216
C  C78  1  0.08840000  0.12050000  0.17740000  1.0 0.0804060216
C  C79  1  0.08840000  0.37950000  0.67740000  1.0 0.0804060216
C  C80  1  0.91160000  0.87950000  0.82260000  1.0 0.0804060216
C  C81  1  0.87250000  0.66890000  0.28950000  1.0 -0.0618545453
C  C82  1  0.12750000  0.16890000  0.21050000  1.0 -0.0618545453
C  C83  1  0.12750000  0.33110000  0.71050000  1.0 -0.0618545453
C  C84  1  0.87250000  0.83110000  0.78950000  1.0 -0.0618545453
C  C85  1  0.96020000  0.71640000  0.32020000  1.0 0.0308303994
C  C86  1  0.03980000  0.21640000  0.17980000  1.0 0.0308303994
C  C87  1  0.03980000  0.28360000  0.67980000  1.0 0.0308303994
C  C88  1  0.96020000  0.78360000  0.82020000  1.0 0.0308303994
C  C89  1  0.08810000  0.71560000  0.38410000  1.0 -0.0119273264
C  C90  1  0.91190000  0.21560000  0.11590000  1.0 -0.0119273264
C  C91  1  0.91190000  0.28440000  0.61590000  1.0 -0.0119273264
C  C92  1  0.08810000  0.78440000  0.88410000  1.0 -0.0119273264
C  C93  1  0.12710000  0.66720000  0.41710000  1.0 0.0804060216
C  C94  1  0.87290000  0.16720000  0.08290000  1.0 0.0804060216
C  C95  1  0.87290000  0.33280000  0.58290000  1.0 0.0804060216
C  C96  1  0.12710000  0.83280000  0.91710000  1.0 0.0804060216
N  N1  1  0.01810000  0.62090000  0.39280000  1.0 -0.299604248
N  N2  1  0.98190000  0.12090000  0.10720000  1.0 -0.299604248
N  N3  1  0.98190000  0.37910000  0.60720000  1.0 -0.299604248
N  N4  1  0.01810000  0.87910000  0.89280000  1.0 -0.299604248
N  N5  1  0.88650000  0.76280000  0.28080000  1.0 -0.1296570709
N  N6  1  0.11350000  0.26280000  0.21920000  1.0 -0.1296570709
N  N7  1  0.11350000  0.23720000  0.71920000  1.0 -0.1296570709
N  N8  1  0.88650000  0.73720000  0.78080000  1.0 -0.1296570709
N  N9  1  0.03940000  0.61970000  0.38640000  1.0 -0.2946445306
N  N10  1  0.96060000  0.11970000  0.11360000  1.0 -0.2946445306
N  N11  1  0.96060000  0.38030000  0.61360000  1.0 -0.2946445306
N  N12  1  0.03940000  0.88030000  0.88640000  1.0 -0.2946445306
O  O1  1  0.79530000  0.95800000  0.00960000  1.0 -0.5344715526
O  O2  1  0.20470000  0.45800000  0.49040000  1.0 -0.5344715526
O  O3  1  0.20470000  0.04200000  0.99040000  1.0 -0.5344715526
O  O4  1  0.79530000  0.54200000  0.50960000  1.0 -0.5344715526
O  O5  1  0.39870000  0.92040000  0.01870000  1.0 -0.5112634709
O  O6  1  0.60130000  0.42040000  0.48130000  1.0 -0.5112634709
O  O7  1  0.60130000  0.07960000  0.98130000  1.0 -0.5112634709
O  O8  1  0.39870000  0.57960000  0.51870000  1.0 -0.5112634709
O  O9  1  0.56930000  0.01130000  0.12180000  1.0 -0.5202410554
O  O10  1  0.43070000  0.51130000  0.37820000  1.0 -0.5202410554
O  O11  1  0.43070000  0.98870000  0.87820000  1.0 -0.5202410554
O  O12  1  0.56930000  0.48870000  0.62180000  1.0 -0.5202410554
O  O13  1  0.15120000  0.99400000  0.13630000  1.0 -0.5202410554
O  O14  1  0.84880000  0.49400000  0.36370000  1.0 -0.5202410554
O  O15  1  0.84880000  0.00600000  0.86370000  1.0 -0.5202410554
O  O16  1  0.15120000  0.50600000  0.63630000  1.0 -0.5202410554
O  O17  1  0.61640000  0.79310000  0.35130000  1.0 -0.4166346898
O  O18  1  0.38360000  0.29310000  0.14870000  1.0 -0.4166346898
O  O19  1  0.38360000  0.20690000  0.64870000  1.0 -0.4166346898
O  O20  1  0.61640000  0.70690000  0.85130000  1.0 -0.4166346898
O  O21  1  0.20140000  0.73610000  0.21800000  1.0 -0.4098429492
O  O22  1  0.79860000  0.23610000  0.28200000  1.0 -0.4098429492
O  O23  1  0.79860000  0.26390000  0.78200000  1.0 -0.4098429492
O  O24  1  0.20140000  0.76390000  0.71800000  1.0 -0.4098429492
