# DDEC6 charges by PACMAN v1.1 (https://github.com/mtap-research/PACMAN-charge/)
data_XEYSUT_ASR_pacman
_symmetry_space_group_name_H-M   'P 1'
_cell_length_a   9.95060000
_cell_length_b   18.76100000
_cell_length_c   19.99140000
_cell_angle_alpha   105.26900000
_cell_angle_beta   97.71200000
_cell_angle_gamma   91.50100000
_symmetry_Int_Tables_number   1
_chemical_formula_structural   Co3H62C102N6(O2F)6
_chemical_formula_sum   'Co3 H62 C102 N6 O12 F6'
_cell_volume   3560.35393586
_cell_formula_units_Z   1
loop_
 _symmetry_equiv_pos_site_id
 _symmetry_equiv_pos_as_xyz
  1  'x, y, z'
loop_
 _atom_site_type_symbol
 _atom_site_label
 _atom_site_symmetry_multiplicity
 _atom_site_fract_x
 _atom_site_fract_y
 _atom_site_fract_z
 _atom_site_occupancy
 _atom_site_charge
Co  Co1  1  0.87832000  0.52440000  0.52881000  1.0 0.8975276464
Co  Co2  1  0.12168000  0.47560000  0.47119000  1.0 0.8975276464
Co  Co3  1  0.00000000  0.50000000  0.00000000  1.0 0.7838097626
H  H1  1  0.96931000  0.93303000  0.10584000  1.0 0.1283511876
H  H2  1  0.03069000  0.06697000  0.89416000  1.0 0.1283511876
H  H3  1  0.84635000  0.56549000  0.68245000  1.0 0.1192906646
H  H4  1  0.15365000  0.43451000  0.31755000  1.0 0.1192906646
H  H5  1  0.21602000  0.70615000  0.84182000  1.0 0.1102283098
H  H6  1  0.78398000  0.29385000  0.15818000  1.0 0.1102283098
H  H7  1  0.59199000  0.45633000  0.51864000  1.0 0.1102283098
H  H8  1  0.40801000  0.54367000  0.48136000  1.0 0.1102283098
H  H9  1  0.08612000  0.64587000  0.73722000  1.0 0.1192906646
H  H10  1  0.91388000  0.35413000  0.26278000  1.0 0.1192906646
H  H11  1  0.35647000  0.46721000  0.70434000  1.0 0.1192906646
H  H12  1  0.64353000  0.53279000  0.29566000  1.0 0.1192906646
H  H13  1  0.79219000  0.86925000  0.28989000  1.0 0.1102283098
H  H14  1  0.20781000  0.13075000  0.71011000  1.0 0.1102283098
H  H15  1  0.47576000  0.51639000  0.93171000  1.0 0.1396553853
H  H16  1  0.52424000  0.48361000  0.06829000  1.0 0.1396553853
H  H17  1  0.69722000  0.55549000  0.75663000  1.0 0.1396553853
H  H18  1  0.30278000  0.44451000  0.24337000  1.0 0.1396553853
H  H19  1  0.43208000  0.44386000  0.58882000  1.0 0.1396553853
H  H20  1  0.56792000  0.55614000  0.41118000  1.0 0.1396553853
H  H21  1  0.51506000  0.77423000  0.04080000  1.0 0.1283511876
H  H22  1  0.48494000  0.22577000  0.95920000  1.0 0.1283511876
H  H23  1  0.79165000  0.73917000  0.05770000  1.0 0.1283511876
H  H24  1  0.20835000  0.26083000  0.94230000  1.0 0.1283511876
H  H25  1  0.07636000  0.18814000  0.16955000  1.0 0.1396553853
H  H26  1  0.92364000  0.81186000  0.83045000  1.0 0.1396553853
H  H27  1  0.59594000  0.82144000  0.83346000  1.0 0.1192906646
H  H28  1  0.40406000  0.17856000  0.16654000  1.0 0.1102283098
H  H29  1  0.54296000  0.53609000  0.81912000  1.0 0.1283511876
H  H30  1  0.45704000  0.46391000  0.18088000  1.0 0.1283511876
H  H31  1  0.92037000  0.28509000  0.98410000  1.0 0.1192906646
H  H32  1  0.07963000  0.71491000  0.01590000  1.0 0.1192906646
H  H33  1  0.53931000  0.71240000  0.74129000  1.0 0.1396553853
H  H34  1  0.46069000  0.28760000  0.25871000  1.0 0.1396553853
H  H35  1  0.38635000  0.71116000  0.93728000  1.0 0.1102283098
H  H36  1  0.61365000  0.28884000  0.06272000  1.0 0.1102283098
H  H37  1  0.00244000  0.66968000  0.24827000  1.0 0.1396553853
H  H38  1  0.99756000  0.33032000  0.75173000  1.0 0.1396553853
H  H39  1  0.70389000  0.77422000  0.34051000  1.0 0.1192906646
H  H40  1  0.29611000  0.22578000  0.65949000  1.0 0.1192906646
H  H41  1  0.82643000  0.17471000  0.98962000  1.0 0.1192906646
H  H42  1  0.17357000  0.82529000  0.01038000  1.0 0.1192906646
H  H43  1  0.84482000  0.68224000  0.14538000  1.0 0.1192906646
H  H44  1  0.15518000  0.31776000  0.85462000  1.0 0.1192906646
H  H45  1  0.72744000  0.88379000  0.93677000  1.0 0.1192906646
H  H46  1  0.27256000  0.11621000  0.06323000  1.0 0.1192906646
H  H47  1  0.05885000  0.05147000  0.11366000  1.0 0.1192906646
H  H48  1  0.94115000  0.94853000  0.88634000  1.0 0.1192906646
H  H49  1  0.60039000  0.98952000  0.04233000  1.0 0.1283511876
H  H50  1  0.39961000  0.01048000  0.95767000  1.0 0.1192906646
H  H51  1  0.74007000  0.92743000  0.20107000  1.0 0.1283511876
H  H52  1  0.25993000  0.07257000  0.79893000  1.0 0.1283511876
H  H53  1  0.68877000  0.10713000  0.04657000  1.0 0.1102283098
H  H54  1  0.31123000  0.89287000  0.95343000  1.0 0.1102283098
H  H55  1  0.18582000  0.49650000  0.76965000  1.0 0.1396553853
H  H56  1  0.81418000  0.50350000  0.23035000  1.0 0.1396553853
H  H57  1  0.02992000  0.49191000  0.84149000  1.0 0.1102283098
H  H58  1  0.97008000  0.50809000  0.15851000  1.0 0.1102283098
H  H59  1  0.73632000  0.70945000  0.42491000  1.0 0.1192906646
H  H60  1  0.26368000  0.29055000  0.57509000  1.0 0.1192906646
H  H61  1  0.31209000  0.50917000  0.00015000  1.0 0.1004040168
H  H62  1  0.68791000  0.49083000  0.99985000  1.0 0.1004040168
C  C1  1  0.91260000  0.96780000  0.09410000  1.0 -0.1798034138
C  C2  1  0.08740000  0.03220000  0.90590000  1.0 -0.1798034138
C  C3  1  0.76180000  0.54100000  0.66340000  1.0 0.1004040168
C  C4  1  0.23820000  0.45900000  0.33660000  1.0 0.1004040168
C  C5  1  0.23280000  0.63730000  0.67440000  1.0 -0.1557551211
C  C6  1  0.76720000  0.36270000  0.32560000  1.0 -0.1557551211
C  C7  1  0.14670000  0.59200000  0.60760000  1.0 0.6144769603
C  C8  1  0.85330000  0.40800000  0.39240000  1.0 0.6144769603
C  C9  1  0.05480000  0.30770000  0.07450000  1.0 -0.1489387141
C  C10  1  0.94520000  0.69230000  0.92550000  1.0 -0.1489387141
C  C11  1  0.77640000  0.94970000  0.07290000  1.0 0.1708009604
C  C12  1  0.22360000  0.05030000  0.92710000  1.0 0.1708009604
C  C13  1  0.54400000  0.49720000  0.68150000  1.0 0.1708009604
C  C14  1  0.45600000  0.50280000  0.31850000  1.0 0.1708009604
C  C15  1  0.94350000  0.16670000  0.07890000  1.0 0.1102283098
C  C16  1  0.05650000  0.83330000  0.92110000  1.0 0.1102283098
C  C17  1  0.10820000  0.38240000  0.06950000  1.0 0.5767597967
C  C18  1  0.89180000  0.61760000  0.93050000  1.0 0.5767597967
C  C19  1  0.25560000  0.69510000  0.80100000  1.0 -0.1798034138
C  C20  1  0.74440000  0.30490000  0.19900000  1.0 -0.1798034138
C  C21  1  0.61250000  0.47690000  0.56680000  1.0 0.0909544342
C  C22  1  0.38750000  0.52310000  0.43320000  1.0 0.0909544342
C  C23  1  0.39200000  0.71640000  0.80430000  1.0 0.1102283098
C  C24  1  0.60800000  0.28360000  0.19570000  1.0 0.1102283098
C  C25  1  0.17770000  0.65780000  0.73780000  1.0 -0.0915522686
C  C26  1  0.82230000  0.34220000  0.26220000  1.0 -0.0915522686
C  C27  1  0.47670000  0.75740000  0.87240000  1.0 0.0599264802
C  C28  1  0.52330000  0.24260000  0.12760000  1.0 0.0599264802
C  C29  1  0.36880000  0.65930000  0.67820000  1.0 0.2868639939
C  C30  1  0.63120000  0.34070000  0.32180000  1.0 0.2868639939
C  C31  1  0.09800000  0.27480000  0.12870000  1.0 0.2868639939
C  C32  1  0.90200000  0.72520000  0.87130000  1.0 0.2868639939
C  C33  1  0.44070000  0.49020000  0.72650000  1.0 -0.1288387309
C  C34  1  0.55930000  0.50980000  0.27350000  1.0 -0.1288387309
C  C35  1  0.79140000  0.84280000  0.24340000  1.0 -0.1288387309
C  C36  1  0.20860000  0.15720000  0.75660000  1.0 -0.1288387309
C  C37  1  0.35230000  0.50800000  0.84070000  1.0 0.1708009604
C  C38  1  0.64770000  0.49200000  0.15930000  1.0 0.1708009604
C  C39  1  0.63890000  0.83670000  0.00140000  1.0 0.1971989089
C  C40  1  0.36110000  0.16330000  0.99860000  1.0 0.1971989089
C  C41  1  0.88510000  0.09220000  0.07940000  1.0 0.051062761
C  C42  1  0.11490000  0.90780000  0.92060000  1.0 0.051062761
C  C43  1  0.38490000  0.51120000  0.91170000  1.0 -0.2074152714
C  C44  1  0.61510000  0.48880000  0.08830000  1.0 -0.2074152714
C  C45  1  0.67310000  0.53500000  0.70860000  1.0 -0.1869780656
C  C46  1  0.32690000  0.46500000  0.29140000  1.0 -0.1869780656
C  C47  1  0.51580000  0.46860000  0.60910000  1.0 -0.1869780656
C  C48  1  0.48420000  0.53140000  0.39090000  1.0 -0.1869780656
C  C49  1  0.88780000  0.64730000  0.38650000  1.0 -0.1489387141
C  C50  1  0.11220000  0.35270000  0.61350000  1.0 -0.1489387141
C  C51  1  0.53260000  0.78360000  0.99930000  1.0 -0.1869780656
C  C52  1  0.46740000  0.21640000  0.00070000  1.0 -0.1869780656
C  C53  1  0.79090000  0.76550000  0.10410000  1.0 -0.1711389235
C  C54  1  0.20910000  0.23450000  0.89590000  1.0 -0.1711389235
C  C55  1  0.04480000  0.20690000  0.13210000  1.0 -0.2831538505
C  C56  1  0.95520000  0.79310000  0.86790000  1.0 -0.2831538505
C  C57  1  0.84810000  0.72840000  0.28430000  1.0 0.1102283098
C  C58  1  0.15190000  0.27160000  0.71570000  1.0 0.1102283098
C  C59  1  0.58020000  0.81120000  0.87490000  1.0 -0.1288387309
C  C60  1  0.41980000  0.18880000  0.12510000  1.0 -0.1288387309
C  C61  1  0.45830000  0.51410000  0.79660000  1.0 -0.1288387309
C  C62  1  0.54170000  0.48590000  0.20340000  1.0 -0.1288387309
C  C63  1  0.95170000  0.26640000  0.02170000  1.0 -0.1001965775
C  C64  1  0.04830000  0.73360000  0.97830000  1.0 -0.1001965775
C  C65  1  0.44890000  0.69830000  0.74110000  1.0 -0.2904979176
C  C66  1  0.55110000  0.30170000  0.25890000  1.0 -0.2904979176
C  C67  1  0.82150000  0.76830000  0.22750000  1.0 0.0599264802
C  C68  1  0.17850000  0.23170000  0.77250000  1.0 0.0599264802
C  C69  1  0.45490000  0.74560000  0.93670000  1.0 -0.1288387309
C  C70  1  0.54510000  0.25440000  0.06330000  1.0 -0.1288387309
C  C71  1  0.75840000  0.83870000  0.11960000  1.0 0.1785945707
C  C72  1  0.24160000  0.16130000  0.88040000  1.0 0.1785945707
C  C73  1  0.94760000  0.67760000  0.28340000  1.0 -0.2737458533
C  C74  1  0.05240000  0.32240000  0.71660000  1.0 -0.2737458533
C  C75  1  0.77010000  0.73990000  0.33810000  1.0 -0.1711389235
C  C76  1  0.22990000  0.26010000  0.66190000  1.0 -0.1711389235
C  C77  1  0.89640000  0.19930000  0.02440000  1.0 -0.1869780656
C  C78  1  0.10360000  0.80070000  0.97560000  1.0 -0.1869780656
C  C79  1  0.82240000  0.73130000  0.15700000  1.0 -0.1188787742
C  C80  1  0.17760000  0.26870000  0.84300000  1.0 -0.1188787742
C  C81  1  0.65930000  0.84920000  0.93740000  1.0 -0.1869780656
C  C82  1  0.34070000  0.15080000  0.06260000  1.0 -0.1869780656
C  C83  1  0.96670000  0.03940000  0.09810000  1.0 -0.1288387309
C  C84  1  0.03330000  0.96060000  0.90190000  1.0 -0.1288387309
C  C85  1  0.69310000  0.00160000  0.05590000  1.0 -0.1798034138
C  C86  1  0.30690000  0.99840000  0.94410000  1.0 -0.1798034138
C  C87  1  0.75990000  0.87790000  0.18990000  1.0 -0.1798034138
C  C88  1  0.24010000  0.12210000  0.81010000  1.0 -0.1798034138
C  C89  1  0.96670000  0.63930000  0.33220000  1.0 0.2786604428
C  C90  1  0.03330000  0.36070000  0.66780000  1.0 0.2786604428
C  C91  1  0.74630000  0.07280000  0.05860000  1.0 -0.1288387309
C  C92  1  0.25370000  0.92720000  0.94140000  1.0 -0.1288387309
C  C93  1  0.21560000  0.49980000  0.81660000  1.0 -0.1869780656
C  C94  1  0.78440000  0.50020000  0.18340000  1.0 -0.1869780656
C  C95  1  0.90590000  0.60400000  0.44050000  1.0 0.5983221942
C  C96  1  0.09410000  0.39600000  0.55950000  1.0 0.5983221942
C  C97  1  0.12140000  0.49640000  0.86040000  1.0 0.0727893264
C  C98  1  0.87860000  0.50360000  0.13960000  1.0 0.0727893264
C  C99  1  0.78930000  0.70050000  0.38900000  1.0 -0.0840055569
C  C100  1  0.21070000  0.29950000  0.61100000  1.0 -0.0840055569
C  C101  1  0.28510000  0.50670000  0.95320000  1.0 0.0801946336
C  C102  1  0.71490000  0.49330000  0.04680000  1.0 0.0801946336
N  N1  1  0.73510000  0.51390000  0.59320000  1.0 -0.2401055171
N  N2  1  0.26490000  0.48610000  0.40680000  1.0 -0.2401055171
N  N3  1  0.71950000  0.87510000  0.06490000  1.0 -0.1798034138
N  N4  1  0.28050000  0.12490000  0.93510000  1.0 -0.1798034138
N  N5  1  0.15230000  0.49900000  0.92870000  1.0 -0.2401055171
N  N6  1  0.84770000  0.50100000  0.07130000  1.0 -0.2401055171
O  O1  1  0.20930000  0.55630000  0.55830000  1.0 -0.5606547482
O  O2  1  0.79070000  0.44370000  0.44170000  1.0 -0.5606547482
O  O3  1  0.06090000  0.40070000  0.01420000  1.0 -0.5888454106
O  O4  1  0.93910000  0.59930000  0.98580000  1.0 -0.5888454106
O  O5  1  0.01760000  0.59120000  0.60541000  1.0 -0.5606547482
O  O6  1  0.98240000  0.40880000  0.39459000  1.0 -0.5606547482
O  O7  1  0.81680000  0.60500000  0.48070000  1.0 -0.536071617
O  O8  1  0.18320000  0.39500000  0.51930000  1.0 -0.536071617
O  O9  1  0.00930000  0.56560000  0.44240000  1.0 -0.5803313043
O  O10  1  0.99070000  0.43440000  0.55760000  1.0 -0.5803313043
O  O11  1  0.19080000  0.42330000  0.11990000  1.0 -0.5803313043
O  O12  1  0.80920000  0.57670000  0.88010000  1.0 -0.5888454106
F  F1  1  0.19570000  0.31090000  0.18310000  1.0 -0.1489387141
F  F2  1  0.80430000  0.68910000  0.81690000  1.0 -0.1489387141
F  F3  1  0.43270000  0.64590000  0.61980000  1.0 -0.1408761925
F  F4  1  0.56730000  0.35410000  0.38020000  1.0 -0.1408761925
F  F5  1  0.06200000  0.58840000  0.32230000  1.0 -0.1288387309
F  F6  1  0.93800000  0.41160000  0.67770000  1.0 -0.1288387309
