# DDEC6 charges by PACMAN v1.1 (https://github.com/mtap-research/PACMAN-charge/)
data_XEZMAU_ASR_pacman
_symmetry_space_group_name_H-M   'P 1'
_cell_length_a   9.77210000
_cell_length_b   17.47450000
_cell_length_c   20.23770000
_cell_angle_alpha   77.59300000
_cell_angle_beta   80.68900000
_cell_angle_gamma   87.69200000
_symmetry_Int_Tables_number   1
_chemical_formula_structural   Co3H58C98N6(O2F)6
_chemical_formula_sum   'Co3 H58 C98 N6 O12 F6'
_cell_volume   3330.61098096
_cell_formula_units_Z   1
loop_
 _symmetry_equiv_pos_site_id
 _symmetry_equiv_pos_as_xyz
  1  'x, y, z'
loop_
 _atom_site_type_symbol
 _atom_site_label
 _atom_site_symmetry_multiplicity
 _atom_site_fract_x
 _atom_site_fract_y
 _atom_site_fract_z
 _atom_site_occupancy
 _atom_site_charge
Co  Co1  1  0.37864000  0.54502000  0.99216000  1.0 0.8985467314
Co  Co2  1  0.62136000  0.45498000  0.00784000  1.0 0.8985467314
Co  Co3  1  0.50000000  0.00000000  0.00000000  1.0 0.7701925397
H  H1  1  0.88047000  0.63542000  0.03057000  1.0 0.1405102715
H  H2  1  0.11953000  0.36458000  0.96943000  1.0 0.1405102715
H  H3  1  0.58451000  0.75429000  0.86279000  1.0 0.1209002989
H  H4  1  0.41549000  0.24571000  0.13721000  1.0 0.1209002989
H  H5  1  0.05888000  0.54818000  0.02943000  1.0 0.1209002989
H  H6  1  0.94112000  0.45182000  0.97057000  1.0 0.1209002989
H  H7  1  0.43657000  0.11370000  0.54741000  1.0 0.1293899168
H  H8  1  0.56343000  0.88630000  0.45259000  1.0 0.1293899168
H  H9  1  0.57697000  0.31660000  0.85808000  1.0 0.1293899168
H  H10  1  0.42303000  0.68340000  0.14192000  1.0 0.1293899168
H  H11  1  0.07029000  0.05390000  0.50761000  1.0 0.1293899168
H  H12  1  0.92971000  0.94610000  0.49239000  1.0 0.1293899168
H  H13  1  0.53955000  0.10603000  0.43643000  1.0 0.1209002989
H  H14  1  0.46045000  0.89397000  0.56357000  1.0 0.1209002989
H  H15  1  0.31711000  0.96947000  0.33185000  1.0 0.1209002989
H  H16  1  0.68289000  0.03053000  0.66815000  1.0 0.1209002989
H  H17  1  0.40718000  0.95786000  0.22208000  1.0 0.1209002989
H  H18  1  0.59282000  0.04214000  0.77792000  1.0 0.1209002989
H  H19  1  0.70123000  0.85758000  0.78832000  1.0 0.1111194381
H  H20  1  0.29877000  0.14242000  0.21168000  1.0 0.1111194381
H  H21  1  0.20733000  0.93164000  0.59985000  1.0 0.1209002989
H  H22  1  0.79267000  0.06836000  0.40015000  1.0 0.1209002989
H  H23  1  0.57359000  0.14906000  0.31465000  1.0 0.1405102715
H  H24  1  0.42641000  0.85094000  0.68535000  1.0 0.1405102715
H  H25  1  0.17284000  0.03997000  0.40005000  1.0 0.1111194381
H  H26  1  0.82716000  0.96003000  0.59995000  1.0 0.1111194381
H  H27  1  0.97678000  0.06784000  0.71273000  1.0 0.1293899168
H  H28  1  0.02322000  0.93216000  0.28727000  1.0 0.1293899168
H  H29  1  0.09227000  0.82205000  0.66770000  1.0 0.1209002989
H  H30  1  0.90773000  0.17795000  0.33230000  1.0 0.1209002989
H  H31  1  0.86624000  0.95710000  0.78080000  1.0 0.1111194381
H  H32  1  0.13376000  0.04290000  0.21920000  1.0 0.1111194381
H  H33  1  0.05108000  0.72751000  0.78142000  1.0 0.1452887862
H  H34  1  0.94892000  0.27249000  0.21858000  1.0 0.1452887862
H  H35  1  0.19785000  0.23568000  0.57496000  1.0 0.1293899168
H  H36  1  0.80215000  0.76432000  0.42504000  1.0 0.1293899168
H  H37  1  0.25372000  0.32374000  0.63752000  1.0 0.1111194381
H  H38  1  0.74628000  0.67626000  0.36248000  1.0 0.1111194381
H  H39  1  0.52431000  0.23629000  0.78962000  1.0 0.1209002989
H  H40  1  0.47569000  0.76371000  0.21038000  1.0 0.1209002989
H  H41  1  0.95537000  0.87394000  0.90300000  1.0 0.1405102715
H  H42  1  0.04463000  0.12606000  0.09700000  1.0 0.1405102715
H  H43  1  0.34888000  0.14253000  0.78399000  1.0 0.1209002989
H  H44  1  0.65112000  0.85747000  0.21601000  1.0 0.1209002989
H  H45  1  0.27698000  0.05579000  0.72559000  1.0 0.1209002989
H  H46  1  0.72302000  0.94421000  0.27441000  1.0 0.1209002989
H  H47  1  0.58374000  0.83426000  0.07627000  1.0 0.1111194381
H  H48  1  0.41626000  0.16574000  0.92373000  1.0 0.1111194381
H  H49  1  0.32327000  0.71848000  0.94627000  1.0 0.1293899168
H  H50  1  0.67673000  0.28152000  0.05373000  1.0 0.1293899168
H  H51  1  0.15036000  0.80954000  0.94208000  1.0 0.1405102715
H  H52  1  0.84964000  0.19046000  0.05792000  1.0 0.1405102715
H  H53  1  0.77614000  0.96308000  0.90709000  1.0 0.1111194381
H  H54  1  0.22386000  0.03692000  0.09291000  1.0 0.1111194381
H  H55  1  0.20352000  0.38025000  0.74078000  1.0 0.1405102715
H  H56  1  0.79648000  0.61975000  0.25922000  1.0 0.1405102715
H  H57  1  0.75190000  0.74027000  0.07424000  1.0 0.1293899168
H  H58  1  0.24810000  0.25973000  0.92576000  1.0 0.1293899168
C  C1  1  0.10690000  0.01230000  0.64930000  1.0 0.1822311739
C  C2  1  0.89310000  0.98770000  0.35070000  1.0 0.1822311739
C  C3  1  0.97000000  0.65360000  0.01330000  1.0 -0.1815147922
C  C4  1  0.03000000  0.34640000  0.98670000  1.0 -0.1815147922
C  C5  1  0.99180000  0.73410000  0.98840000  1.0 0.1111194381
C  C6  1  0.00820000  0.26590000  0.01160000  1.0 0.1111194381
C  C7  1  0.54360000  0.04790000  0.19870000  1.0 -0.1500153507
C  C8  1  0.45640000  0.95210000  0.80130000  1.0 -0.1500153507
C  C9  1  0.24280000  0.08180000  0.53970000  1.0 0.1822311739
C  C10  1  0.75720000  0.91820000  0.46030000  1.0 0.1822311739
C  C11  1  0.41690000  0.39370000  0.84710000  1.0 -0.1585504726
C  C12  1  0.58310000  0.60630000  0.15290000  1.0 -0.1585504726
C  C13  1  0.67780000  0.74790000  0.84620000  1.0 -0.0819639653
C  C14  1  0.32220000  0.25210000  0.15380000  1.0 -0.0819639653
C  C15  1  0.31260000  0.24300000  0.71760000  1.0 0.0537912533
C  C16  1  0.68740000  0.75700000  0.28240000  1.0 0.0537912533
C  C17  1  0.07770000  0.60120000  0.01270000  1.0 0.0803893938
C  C18  1  0.92230000  0.39880000  0.98730000  1.0 0.0803893938
C  C19  1  0.96840000  0.87660000  0.73310000  1.0 0.0571516588
C  C20  1  0.03160000  0.12340000  0.26690000  1.0 0.0571516588
C  C21  1  0.74080000  0.67500000  0.86670000  1.0 -0.1500153507
C  C22  1  0.25920000  0.32500000  0.13330000  1.0 -0.1500153507
C  C23  1  0.38400000  0.09910000  0.51780000  1.0 -0.1815147922
C  C24  1  0.61600000  0.90090000  0.48220000  1.0 -0.1815147922
C  C25  1  0.49960000  0.32810000  0.83620000  1.0 -0.0916492917
C  C26  1  0.50040000  0.67190000  0.16380000  1.0 -0.0916492917
C  C27  1  0.22710000  0.13640000  0.64470000  1.0 0.1822311739
C  C28  1  0.77290000  0.86360000  0.35530000  1.0 0.1822311739
C  C29  1  0.36790000  0.07170000  0.40600000  1.0 0.0571516588
C  C30  1  0.63210000  0.92830000  0.59400000  1.0 0.0571516588
C  C31  1  0.87510000  0.79450000  0.99020000  1.0 0.1209002989
C  C32  1  0.12490000  0.20550000  0.00980000  1.0 0.1209002989
C  C33  1  0.16500000  0.06240000  0.49420000  1.0 -0.1815147922
C  C34  1  0.83500000  0.93760000  0.50580000  1.0 -0.1815147922
C  C35  1  0.59430000  0.10330000  0.22890000  1.0 0.2803896874
C  C36  1  0.40570000  0.89670000  0.77110000  1.0 0.2803896874
C  C37  1  0.43470000  0.06130000  0.33580000  1.0 0.100221803
C  C38  1  0.56530000  0.93870000  0.66420000  1.0 0.100221803
C  C39  1  0.44610000  0.09420000  0.45090000  1.0 -0.1403247307
C  C40  1  0.55390000  0.90580000  0.54910000  1.0 -0.1403247307
C  C41  1  0.35360000  0.29840000  0.75770000  1.0 0.100221803
C  C42  1  0.64640000  0.70160000  0.24230000  1.0 0.100221803
C  C43  1  0.38620000  0.00360000  0.30650000  1.0 -0.1815147922
C  C44  1  0.61380000  0.99640000  0.69350000  1.0 -0.1815147922
C  C45  1  0.88940000  0.80710000  0.77780000  1.0 0.100221803
C  C46  1  0.11060000  0.19290000  0.22220000  1.0 0.100221803
C  C47  1  0.88460000  0.67030000  0.84000000  1.0 0.29014889
C  C48  1  0.11540000  0.32970000  0.16000000  1.0 0.29014889
C  C49  1  0.44030000  0.99700000  0.23990000  1.0 -0.1031426355
C  C50  1  0.55970000  0.00300000  0.76010000  1.0 -0.1031426355
C  C51  1  0.74920000  0.81130000  0.80190000  1.0 -0.1815147922
C  C52  1  0.25080000  0.18870000  0.19810000  1.0 -0.1815147922
C  C53  1  0.65940000  0.60760000  0.91440000  1.0 0.609245649
C  C54  1  0.34060000  0.39240000  0.08560000  1.0 0.609245649
C  C55  1  0.13920000  0.93730000  0.63630000  1.0 -0.1860575885
C  C56  1  0.86080000  0.06270000  0.36370000  1.0 -0.1860575885
C  C57  1  0.53930000  0.11060000  0.29640000  1.0 -0.2695472479
C  C58  1  0.46070000  0.88940000  0.70360000  1.0 -0.2695472479
C  C59  1  0.22610000  0.05550000  0.42900000  1.0 -0.1305065826
C  C60  1  0.77390000  0.94450000  0.57100000  1.0 -0.1305065826
C  C61  1  0.00210000  0.01880000  0.70370000  1.0 -0.1860575885
C  C62  1  0.99790000  0.98120000  0.29630000  1.0 -0.1815147922
C  C63  1  0.06980000  0.87100000  0.67760000  1.0 -0.1305065826
C  C64  1  0.93020000  0.12900000  0.32240000  1.0 -0.1305065826
C  C65  1  0.44650000  0.43860000  0.89960000  1.0 0.609245649
C  C66  1  0.55350000  0.56140000  0.10040000  1.0 0.609245649
C  C67  1  0.93520000  0.95160000  0.74460000  1.0 -0.1305065826
C  C68  1  0.06480000  0.04840000  0.25540000  1.0 -0.1305065826
C  C69  1  0.59230000  0.04030000  0.12480000  1.0 0.5648138881
C  C70  1  0.40770000  0.95970000  0.87520000  1.0 0.5648138881
C  C71  1  0.95730000  0.73320000  0.79750000  1.0 -0.2980421126
C  C72  1  0.04270000  0.26680000  0.20250000  1.0 -0.2980421126
C  C73  1  0.22460000  0.21720000  0.61760000  1.0 -0.1860575885
C  C74  1  0.77540000  0.78280000  0.38240000  1.0 -0.1860575885
C  C75  1  0.26200000  0.27020000  0.65450000  1.0 -0.1305065826
C  C76  1  0.73800000  0.72980000  0.34550000  1.0 -0.1305065826
C  C77  1  0.46960000  0.28020000  0.79420000  1.0 -0.1996979729
C  C78  1  0.53040000  0.71980000  0.20580000  1.0 -0.1996979729
C  C79  1  0.88060000  0.86450000  0.93850000  1.0 -0.1815147922
C  C80  1  0.11940000  0.13550000  0.06150000  1.0 -0.1815147922
C  C81  1  0.31680000  0.16180000  0.74270000  1.0 -0.1305065826
C  C82  1  0.68320000  0.83820000  0.25730000  1.0 -0.1305065826
C  C83  1  0.27420000  0.10930000  0.70740000  1.0 -0.1815147922
C  C84  1  0.72580000  0.89070000  0.29260000  1.0 -0.1815147922
C  C85  1  0.65850000  0.84270000  0.04080000  1.0 0.100221803
C  C86  1  0.34150000  0.15730000  0.95920000  1.0 0.100221803
C  C87  1  0.30830000  0.41240000  0.80900000  1.0 0.29014889
C  C88  1  0.69170000  0.58760000  0.19100000  1.0 0.29014889
C  C89  1  0.23290000  0.70150000  0.96330000  1.0 0.100221803
C  C90  1  0.76710000  0.29850000  0.03670000  1.0 0.100221803
C  C91  1  0.12970000  0.75720000  0.96120000  1.0 -0.1815147922
C  C92  1  0.87030000  0.24280000  0.03880000  1.0 -0.1815147922
C  C93  1  0.77230000  0.91830000  0.94180000  1.0 0.0803893938
C  C94  1  0.22770000  0.08170000  0.05820000  1.0 0.0803893938
C  C95  1  0.27670000  0.36590000  0.76520000  1.0 -0.2773691207
C  C96  1  0.72330000  0.63410000  0.23480000  1.0 -0.2773691207
C  C97  1  0.76090000  0.78560000  0.04010000  1.0 -0.1815147922
C  C98  1  0.23910000  0.21440000  0.95990000  1.0 -0.1815147922
N  N1  1  0.17930000  0.08180000  0.60930000  1.0 -0.1815147922
N  N2  1  0.82070000  0.91820000  0.39070000  1.0 -0.1815147922
N  N3  1  0.66070000  0.90970000  0.99300000  1.0 -0.2400476202
N  N4  1  0.33930000  0.09030000  0.00700000  1.0 -0.2400476202
N  N5  1  0.21290000  0.62390000  0.98820000  1.0 -0.2400476202
N  N6  1  0.78710000  0.37610000  0.01180000  1.0 -0.2400476202
O  O1  1  0.52390000  0.00060000  0.09995000  1.0 -0.5386303306
O  O2  1  0.47610000  0.99940000  0.90005000  1.0 -0.5386303306
O  O3  1  0.52890000  0.61700000  0.92820000  1.0 -0.5752496362
O  O4  1  0.47110000  0.38300000  0.07180000  1.0 -0.5752496362
O  O5  1  0.55580000  0.42090000  0.92630000  1.0 -0.5672454477
O  O6  1  0.44420000  0.57910000  0.07370000  1.0 -0.5672454477
O  O7  1  0.35540000  0.48980000  0.91580000  1.0 -0.5386303306
O  O8  1  0.64460000  0.51020000  0.08420000  1.0 -0.5386303306
O  O9  1  0.72540000  0.54580000  0.93990000  1.0 -0.5525738836
O  O10  1  0.27460000  0.45420000  0.06010000  1.0 -0.5525738836
O  O11  1  0.70010000  0.07500000  0.09370000  1.0 -0.5386303306
O  O12  1  0.29990000  0.92500000  0.90630000  1.0 -0.5386303306
F  F1  1  0.21950000  0.47430000  0.81590000  1.0 -0.1403247307
F  F2  1  0.78050000  0.52570000  0.18410000  1.0 -0.1403247307
F  F3  1  0.95870000  0.60220000  0.85840000  1.0 -0.1403247307
F  F4  1  0.04130000  0.39780000  0.14160000  1.0 -0.1403247307
F  F5  1  0.69800000  0.15710000  0.19530000  1.0 -0.1500153507
F  F6  1  0.30200000  0.84290000  0.80470000  1.0 -0.1500153507
