# DDEC6 charges by PACMAN v1.1 (https://github.com/mtap-research/PACMAN-charge/)
data_XEZZUB_ASR_pacman
_symmetry_space_group_name_H-M   'P 1'
_cell_length_a   17.52280000
_cell_length_b   17.52280000
_cell_length_c   17.52280000
_cell_angle_alpha   97.06570000
_cell_angle_beta   97.06570000
_cell_angle_gamma   138.93700000
_symmetry_Int_Tables_number   1
_chemical_formula_structural   VP(CO)3
_chemical_formula_sum   'V16 P16 C48 O48'
_cell_volume   3309.78518146
_cell_formula_units_Z   16
loop_
 _symmetry_equiv_pos_site_id
 _symmetry_equiv_pos_as_xyz
  1  'x, y, z'
loop_
 _atom_site_type_symbol
 _atom_site_label
 _atom_site_symmetry_multiplicity
 _atom_site_fract_x
 _atom_site_fract_y
 _atom_site_fract_z
 _atom_site_occupancy
 _atom_site_charge
V  V1  1  0.23689000  0.35884000  0.83573000  1.0 1.5178713801
V  V2  1  0.52311000  0.40116000  0.16427000  1.0 1.5132337356
V  V3  1  0.65116000  0.98689000  0.37805000  1.0 1.5132337356
V  V4  1  0.60884000  0.27311000  0.62195000  1.0 1.5132337356
V  V5  1  0.51311000  0.84884000  0.62195000  1.0 1.5132337356
V  V6  1  0.22689000  0.89116000  0.37805000  1.0 1.5178713801
V  V7  1  0.09884000  0.97689000  0.83573000  1.0 1.5178713801
V  V8  1  0.14116000  0.26311000  0.16427000  1.0 1.5132337356
V  V9  1  0.01311000  0.39116000  0.66427000  1.0 1.5178713801
V  V10  1  0.72689000  0.34884000  0.33573000  1.0 1.5132337356
V  V11  1  0.59884000  0.76311000  0.12195000  1.0 1.5132337356
V  V12  1  0.64116000  0.47689000  0.87805000  1.0 1.5178713801
V  V13  1  0.73689000  0.90116000  0.87805000  1.0 1.5132337356
V  V14  1  0.02311000  0.85884000  0.12195000  1.0 1.5132337356
V  V15  1  0.15116000  0.77311000  0.66427000  1.0 1.5178713801
V  V16  1  0.10884000  0.48689000  0.33573000  1.0 1.5178713801
P  P1  1  0.98130000  0.06180000  0.81510000  1.0 1.3210969985
P  P2  1  0.24670000  0.16620000  0.18490000  1.0 1.3210969985
P  P3  1  0.41620000  0.73130000  0.41950000  1.0 1.3210969985
P  P4  1  0.31180000  0.99670000  0.58050000  1.0 1.3210969985
P  P5  1  0.76870000  0.08380000  0.58050000  1.0 1.3210969985
P  P6  1  0.50330000  0.18820000  0.41950000  1.0 1.3210969985
P  P7  1  0.33380000  0.25330000  0.81510000  1.0 1.3210969985
P  P8  1  0.43820000  0.51870000  0.18490000  1.0 1.3210969985
P  P9  1  0.26870000  0.68820000  0.68490000  1.0 1.3210969985
P  P10  1  0.00330000  0.58380000  0.31510000  1.0 1.3210969985
P  P11  1  0.83380000  0.01870000  0.08050000  1.0 1.3210969985
P  P12  1  0.93820000  0.75330000  0.91950000  1.0 1.3210969985
P  P13  1  0.48130000  0.66620000  0.91950000  1.0 1.3210969985
P  P14  1  0.74670000  0.56180000  0.08050000  1.0 1.3210969985
P  P15  1  0.91620000  0.49670000  0.68490000  1.0 1.3210969985
P  P16  1  0.81180000  0.23130000  0.31510000  1.0 1.3210969985
C  C1  1  0.91800000  0.02460000  0.70860000  1.0 -0.3407249462
C  C2  1  0.91680000  0.96220000  0.64900000  1.0 0.0744404933
C  C3  1  0.31600000  0.20940000  0.29140000  1.0 -0.3407249462
C  C4  1  0.31320000  0.26780000  0.35100000  1.0 0.0744404933
C  C5  1  0.45940000  0.66800000  0.39340000  1.0 -0.3407249462
C  C6  1  0.51780000  0.66680000  0.45460000  1.0 0.0744404933
C  C7  1  0.27460000  0.06600000  0.60660000  1.0 -0.3407249462
C  C8  1  0.21220000  0.06320000  0.54540000  1.0 0.0744404933
C  C9  1  0.83200000  0.04060000  0.60660000  1.0 -0.3407249462
C  C10  1  0.83320000  0.98220000  0.54540000  1.0 0.0744404933
C  C11  1  0.43400000  0.22540000  0.39340000  1.0 -0.3407249462
C  C12  1  0.43680000  0.28780000  0.45460000  1.0 0.0744404933
C  C13  1  0.29060000  0.18400000  0.70860000  1.0 -0.3407249462
C  C14  1  0.23220000  0.18680000  0.64900000  1.0 0.0744404933
C  C15  1  0.47540000  0.58200000  0.29140000  1.0 -0.3407249462
C  C16  1  0.53780000  0.58320000  0.35100000  1.0 0.0744404933
C  C17  1  0.33200000  0.72540000  0.79140000  1.0 -0.3407249462
C  C18  1  0.33320000  0.78780000  0.85100000  1.0 0.0744404933
C  C19  1  0.93400000  0.54060000  0.20860000  1.0 -0.3407249462
C  C20  1  0.93680000  0.48220000  0.14900000  1.0 0.0775957227
C  C21  1  0.79060000  0.08200000  0.10660000  1.0 -0.3407249462
C  C22  1  0.73220000  0.08320000  0.04540000  1.0 0.0744404933
C  C23  1  0.97540000  0.68400000  0.89340000  1.0 -0.3407249462
C  C24  1  0.03780000  0.68680000  0.95460000  1.0 0.0744404933
C  C25  1  0.41800000  0.70940000  0.89340000  1.0 -0.3407249462
C  C26  1  0.41680000  0.76780000  0.95460000  1.0 0.0744404933
C  C27  1  0.81600000  0.52460000  0.10660000  1.0 -0.3407249462
C  C28  1  0.81320000  0.46220000  0.04540000  1.0 0.0775957227
C  C29  1  0.95940000  0.56600000  0.79140000  1.0 -0.3407249462
C  C30  1  0.01780000  0.56320000  0.85100000  1.0 0.0744404933
C  C31  1  0.77460000  0.16800000  0.20860000  1.0 -0.3407249462
C  C32  1  0.71220000  0.16680000  0.14900000  1.0 0.0744404933
C  C33  1  0.87500000  0.06220000  0.68720000  1.0 0.0404186584
C  C34  1  0.87500000  0.94170000  0.56670000  1.0 -0.0227253842
C  C35  1  0.37500000  0.18780000  0.31280000  1.0 0.0404186584
C  C36  1  0.37500000  0.30830000  0.43330000  1.0 -0.0227253842
C  C37  1  0.43780000  0.62500000  0.31280000  1.0 0.0404186584
C  C38  1  0.55830000  0.62500000  0.43330000  1.0 -0.0227253842
C  C39  1  0.31220000  0.12500000  0.68720000  1.0 0.0404186584
C  C40  1  0.19170000  0.12500000  0.56670000  1.0 -0.0227253842
C  C41  1  0.37500000  0.68780000  0.81280000  1.0 0.0461164757
C  C42  1  0.37500000  0.80830000  0.93330000  1.0 -0.0227253842
C  C43  1  0.87500000  0.56220000  0.18720000  1.0 0.0461164757
C  C44  1  0.87500000  0.44170000  0.06670000  1.0 -0.0227253842
C  C45  1  0.81220000  0.12500000  0.18720000  1.0 0.0404186584
C  C46  1  0.69170000  0.12500000  0.06670000  1.0 -0.0227253842
C  C47  1  0.93780000  0.62500000  0.81280000  1.0 0.0461164757
C  C48  1  0.05830000  0.62500000  0.93330000  1.0 -0.0227253842
O  O1  1  0.10910000  0.20090000  0.85420000  1.0 -0.8711930394
O  O2  1  0.99380000  0.98540000  0.82460000  1.0 -0.8481567197
O  O3  1  0.89800000  0.03750000  0.85990000  1.0 -0.8610348732
O  O4  1  0.34670000  0.25490000  0.14580000  1.0 -0.8711930394
O  O5  1  0.16080000  0.16920000  0.17540000  1.0 -0.8481567197
O  O6  1  0.17760000  0.03810000  0.14010000  1.0 -0.8610348732
O  O7  1  0.50490000  0.85910000  0.40820000  1.0 -0.8711930394
O  O8  1  0.41920000  0.74380000  0.50840000  1.0 -0.8481567197
O  O9  1  0.28810000  0.64800000  0.36050000  1.0 -0.8610348732
O  O10  1  0.45090000  0.09670000  0.59180000  1.0 -0.8711930394
O  O11  1  0.23540000  0.91080000  0.49160000  1.0 -0.8481567197
O  O12  1  0.28750000  0.92760000  0.63950000  1.0 -0.8610348732
O  O13  1  0.64090000  0.99510000  0.59180000  1.0 -0.8711930394
O  O14  1  0.75620000  0.08080000  0.49160000  1.0 -0.8481567197
O  O15  1  0.85200000  0.21190000  0.63950000  1.0 -0.8610348732
O  O16  1  0.40330000  0.04910000  0.40820000  1.0 -0.8711930394
O  O17  1  0.58920000  0.26460000  0.50840000  1.0 -0.8481567197
O  O18  1  0.57240000  0.21250000  0.36050000  1.0 -0.8610348732
O  O19  1  0.24510000  0.15330000  0.85420000  1.0 -0.8711930394
O  O20  1  0.33080000  0.33920000  0.82460000  1.0 -0.8481567197
O  O21  1  0.46190000  0.32240000  0.85990000  1.0 -0.8610348732
O  O22  1  0.29910000  0.39090000  0.14580000  1.0 -0.8711930394
O  O23  1  0.51460000  0.50620000  0.17540000  1.0 -0.8481567197
O  O24  1  0.46250000  0.60200000  0.14010000  1.0 -0.8610348732
O  O25  1  0.14090000  0.54910000  0.64580000  1.0 -0.8711930394
O  O26  1  0.25620000  0.76460000  0.67540000  1.0 -0.8481567197
O  O27  1  0.35200000  0.71250000  0.64010000  1.0 -0.8610348732
O  O28  1  0.90330000  0.49510000  0.35420000  1.0 -0.8711930394
O  O29  1  0.08920000  0.58080000  0.32460000  1.0 -0.8481567197
O  O30  1  0.07240000  0.71190000  0.35990000  1.0 -0.8610348732
O  O31  1  0.74510000  0.89090000  0.09180000  1.0 -0.8711930394
O  O32  1  0.83080000  0.00620000  0.99160000  1.0 -0.8481567197
O  O33  1  0.96190000  0.10200000  0.13950000  1.0 -0.8610348732
O  O34  1  0.79910000  0.65330000  0.90820000  1.0 -0.8711930394
O  O35  1  0.01460000  0.83920000  0.00840000  1.0 -0.8481567197
O  O36  1  0.96250000  0.82240000  0.86050000  1.0 -0.8610348732
O  O37  1  0.60910000  0.75490000  0.90820000  1.0 -0.8711930394
O  O38  1  0.49380000  0.66920000  0.00840000  1.0 -0.8481567197
O  O39  1  0.39800000  0.53810000  0.86050000  1.0 -0.8610348732
O  O40  1  0.84670000  0.70090000  0.09180000  1.0 -0.8711930394
O  O41  1  0.66080000  0.48540000  0.99160000  1.0 -0.8481567197
O  O42  1  0.67760000  0.53750000  0.13950000  1.0 -0.8610348732
O  O43  1  0.00490000  0.59670000  0.64580000  1.0 -0.8711930394
O  O44  1  0.91920000  0.41080000  0.67540000  1.0 -0.8481567197
O  O45  1  0.78810000  0.42760000  0.64010000  1.0 -0.8610348732
O  O46  1  0.95090000  0.35910000  0.35420000  1.0 -0.8711930394
O  O47  1  0.73540000  0.24380000  0.32460000  1.0 -0.8481567197
O  O48  1  0.78750000  0.14800000  0.35990000  1.0 -0.8610348732
