# DDEC6 charges by PACMAN v1.1 (https://github.com/mtap-research/PACMAN-charge/)
data_XICVUB_FSR_pacman
_symmetry_space_group_name_H-M   'P 1'
_cell_length_a   11.65310000
_cell_length_b   21.98750000
_cell_length_c   15.31040000
_cell_angle_alpha   90.00000000
_cell_angle_beta   110.02900000
_cell_angle_gamma   90.00000000
_symmetry_Int_Tables_number   1
_chemical_formula_structural   Cu2H20(C4N3)5
_chemical_formula_sum   'Cu8 H80 C80 N60'
_cell_volume   3685.61197156
_cell_formula_units_Z   4
loop_
 _symmetry_equiv_pos_site_id
 _symmetry_equiv_pos_as_xyz
  1  'x, y, z'
loop_
 _atom_site_type_symbol
 _atom_site_label
 _atom_site_symmetry_multiplicity
 _atom_site_fract_x
 _atom_site_fract_y
 _atom_site_fract_z
 _atom_site_occupancy
 _atom_site_charge
Cu  Cu1  1  0.30485000  0.83401000  0.29278000  1.0 0.3070901906
Cu  Cu2  1  0.69515000  0.33401000  0.20722000  1.0 0.3070901906
Cu  Cu3  1  0.69515000  0.16599000  0.70722000  1.0 0.3070901906
Cu  Cu4  1  0.30485000  0.66599000  0.79278000  1.0 0.3070901906
Cu  Cu5  1  0.84879000  0.80798000  0.89275000  1.0 0.354482395
Cu  Cu6  1  0.15121000  0.30798000  0.60725000  1.0 0.3592422133
Cu  Cu7  1  0.15121000  0.19202000  0.10725000  1.0 0.3592422133
Cu  Cu8  1  0.84879000  0.69202000  0.39275000  1.0 0.354482395
H  H1  1  0.45210000  0.87840000  0.71970000  1.0 0.1293272754
H  H2  1  0.54790000  0.37840000  0.78030000  1.0 0.1293272754
H  H3  1  0.54790000  0.12160000  0.28030000  1.0 0.1293272754
H  H4  1  0.45210000  0.62160000  0.21970000  1.0 0.1293272754
H  H5  1  0.88670000  0.79140000  0.09690000  1.0 0.1293272754
H  H6  1  0.11330000  0.29140000  0.40310000  1.0 0.1293272754
H  H7  1  0.11330000  0.20860000  0.90310000  1.0 0.1293272754
H  H8  1  0.88670000  0.70860000  0.59690000  1.0 0.1293272754
H  H9  1  0.94090000  0.91130000  0.83870000  1.0 0.1489903708
H  H10  1  0.05910000  0.41130000  0.66130000  1.0 0.1489903708
H  H11  1  0.05910000  0.08870000  0.16130000  1.0 0.1489903708
H  H12  1  0.94090000  0.58870000  0.33870000  1.0 0.1489903708
H  H13  1  0.89680000  0.97820000  0.84290000  1.0 0.1693135215
H  H14  1  0.10320000  0.47820000  0.65710000  1.0 0.1693135215
H  H15  1  0.10320000  0.02180000  0.15710000  1.0 0.1693135215
H  H16  1  0.89680000  0.52180000  0.34290000  1.0 0.1693135215
H  H17  1  0.90440000  0.95230000  0.74960000  1.0 0.162238724
H  H18  1  0.09560000  0.45230000  0.75040000  1.0 0.162238724
H  H19  1  0.09560000  0.04770000  0.25040000  1.0 0.162238724
H  H20  1  0.90440000  0.54770000  0.24960000  1.0 0.162238724
H  H21  1  0.32360000  0.90480000  0.14970000  1.0 0.1489903708
H  H22  1  0.67640000  0.40480000  0.35030000  1.0 0.1489903708
H  H23  1  0.67640000  0.09520000  0.85030000  1.0 0.1489903708
H  H24  1  0.32360000  0.59520000  0.64970000  1.0 0.1489903708
H  H25  1  0.28800000  0.88970000  0.04370000  1.0 0.162238724
H  H26  1  0.71200000  0.38970000  0.45630000  1.0 0.162238724
H  H27  1  0.71200000  0.11030000  0.95630000  1.0 0.162238724
H  H28  1  0.28800000  0.61030000  0.54370000  1.0 0.162238724
H  H29  1  0.23830000  0.94900000  0.07510000  1.0 0.162238724
H  H30  1  0.76170000  0.44900000  0.42490000  1.0 0.162238724
H  H31  1  0.76170000  0.05100000  0.92490000  1.0 0.162238724
H  H32  1  0.23830000  0.55100000  0.57510000  1.0 0.162238724
H  H33  1  0.40620000  0.78670000  0.75090000  1.0 0.1293272754
H  H34  1  0.59380000  0.28670000  0.74910000  1.0 0.1293272754
H  H35  1  0.59380000  0.21330000  0.24910000  1.0 0.1293272754
H  H36  1  0.40620000  0.71330000  0.25090000  1.0 0.1293272754
H  H37  1  0.89260000  0.75910000  0.23050000  1.0 0.1293272754
H  H38  1  0.10740000  0.25910000  0.26950000  1.0 0.1293272754
H  H39  1  0.10740000  0.24090000  0.76950000  1.0 0.1293272754
H  H40  1  0.89260000  0.74090000  0.73050000  1.0 0.1293272754
H  H41  1  0.50400000  0.92430000  0.40590000  1.0 0.1293272754
H  H42  1  0.49600000  0.42430000  0.09410000  1.0 0.1293272754
H  H43  1  0.49600000  0.07570000  0.59410000  1.0 0.1293272754
H  H44  1  0.50400000  0.57570000  0.90590000  1.0 0.1293272754
H  H45  1  0.84880000  0.68780000  0.95400000  1.0 0.1406039899
H  H46  1  0.15120000  0.18780000  0.54600000  1.0 0.1406039899
H  H47  1  0.15120000  0.31220000  0.04600000  1.0 0.1406039899
H  H48  1  0.84880000  0.81220000  0.45400000  1.0 0.1406039899
H  H49  1  0.78030000  0.62980000  0.90210000  1.0 0.162238724
H  H50  1  0.21970000  0.12980000  0.59790000  1.0 0.162238724
H  H51  1  0.21970000  0.37020000  0.09790000  1.0 0.162238724
H  H52  1  0.78030000  0.87020000  0.40210000  1.0 0.162238724
H  H53  1  0.76550000  0.65030000  0.99580000  1.0 0.162238724
H  H54  1  0.23450000  0.15030000  0.50420000  1.0 0.162238724
H  H55  1  0.23450000  0.34970000  0.00420000  1.0 0.162238724
H  H56  1  0.76550000  0.84970000  0.49580000  1.0 0.162238724
H  H57  1  0.35060000  0.79630000  0.47630000  1.0 0.1489903708
H  H58  1  0.64940000  0.29630000  0.02370000  1.0 0.1489903708
H  H59  1  0.64940000  0.20370000  0.52370000  1.0 0.1489903708
H  H60  1  0.35060000  0.70370000  0.97630000  1.0 0.1489903708
H  H61  1  0.27370000  0.80420000  0.54180000  1.0 0.162238724
H  H62  1  0.72630000  0.30420000  0.95820000  1.0 0.162238724
H  H63  1  0.72630000  0.19580000  0.45820000  1.0 0.162238724
H  H64  1  0.27370000  0.69580000  0.04180000  1.0 0.162238724
H  H65  1  0.31640000  0.73930000  0.52370000  1.0 0.162238724
H  H66  1  0.68360000  0.23930000  0.97630000  1.0 0.162238724
H  H67  1  0.68360000  0.26070000  0.47630000  1.0 0.162238724
H  H68  1  0.31640000  0.76070000  0.02370000  1.0 0.162238724
H  H69  1  0.14230000  0.03000000  0.49860000  1.0 0.1489903708
H  H70  1  0.85770000  0.53000000  0.00140000  1.0 0.1489903708
H  H71  1  0.85770000  0.97000000  0.50140000  1.0 0.1489903708
H  H72  1  0.14230000  0.47000000  0.99860000  1.0 0.1489903708
H  H73  1  0.06680000  0.00840000  0.39760000  1.0 0.1489903708
H  H74  1  0.93320000  0.50840000  0.10240000  1.0 0.1489903708
H  H75  1  0.93320000  0.99160000  0.60240000  1.0 0.1489903708
H  H76  1  0.06680000  0.49160000  0.89760000  1.0 0.1489903708
H  H77  1  0.09040000  0.96360000  0.48160000  1.0 0.1406039899
H  H78  1  0.90960000  0.46360000  0.01840000  1.0 0.1489903708
H  H79  1  0.90960000  0.03640000  0.51840000  1.0 0.1489903708
H  H80  1  0.09040000  0.53640000  0.98160000  1.0 0.1406039899
C  C1  1  0.61580000  0.84990000  0.78140000  1.0 0.1406039899
C  C2  1  0.38420000  0.34990000  0.71860000  1.0 0.1406039899
C  C3  1  0.38420000  0.15010000  0.21860000  1.0 0.1406039899
C  C4  1  0.61580000  0.65010000  0.28140000  1.0 0.1406039899
C  C5  1  0.05830000  0.81540000  0.17360000  1.0 0.1693135215
C  C6  1  0.94170000  0.31540000  0.32640000  1.0 0.1693135215
C  C7  1  0.94170000  0.18460000  0.82640000  1.0 0.1693135215
C  C8  1  0.05830000  0.68460000  0.67360000  1.0 0.1693135215
C  C9  1  0.53330000  0.88940000  0.73250000  1.0 -0.0784236834
C  C10  1  0.46670000  0.38940000  0.76750000  1.0 -0.0784236834
C  C11  1  0.46670000  0.11060000  0.26750000  1.0 -0.0784236834
C  C12  1  0.53330000  0.61060000  0.23250000  1.0 -0.0784236834
C  C13  1  0.95570000  0.81200000  0.09530000  1.0 -0.129807567
C  C14  1  0.04430000  0.31200000  0.40470000  1.0 -0.129807567
C  C15  1  0.04430000  0.18800000  0.90470000  1.0 -0.129807567
C  C16  1  0.95570000  0.68800000  0.59530000  1.0 -0.129807567
C  C17  1  0.75860000  0.92090000  0.77840000  1.0 0.4185266768
C  C18  1  0.24140000  0.42090000  0.72160000  1.0 0.4185266768
C  C19  1  0.24140000  0.07910000  0.22160000  1.0 0.4185266768
C  C20  1  0.75860000  0.57910000  0.27840000  1.0 0.4185266768
C  C21  1  0.15130000  0.87320000  0.09320000  1.0 0.3991748338
C  C22  1  0.84870000  0.37320000  0.40680000  1.0 0.3991748338
C  C23  1  0.84870000  0.12680000  0.90680000  1.0 0.3991748338
C  C24  1  0.15130000  0.62680000  0.59320000  1.0 0.3991748338
C  C25  1  0.88640000  0.94260000  0.80470000  1.0 -0.5195149953
C  C26  1  0.11360000  0.44260000  0.69530000  1.0 -0.5195149953
C  C27  1  0.11360000  0.05740000  0.19530000  1.0 -0.5195149953
C  C28  1  0.88640000  0.55740000  0.30470000  1.0 -0.5195149953
C  C29  1  0.25990000  0.90710000  0.09020000  1.0 -0.5001294414
C  C30  1  0.74010000  0.40710000  0.40980000  1.0 -0.5001294414
C  C31  1  0.74010000  0.09290000  0.90980000  1.0 -0.5001294414
C  C32  1  0.25990000  0.59290000  0.59020000  1.0 -0.5001294414
C  C33  1  0.58900000  0.78940000  0.81100000  1.0 0.1489903708
C  C34  1  0.41100000  0.28940000  0.68900000  1.0 0.1489903708
C  C35  1  0.41100000  0.21060000  0.18900000  1.0 0.1489903708
C  C36  1  0.58900000  0.71060000  0.31100000  1.0 0.1489903708
C  C37  1  0.06400000  0.78810000  0.26480000  1.0 0.162238724
C  C38  1  0.93600000  0.28810000  0.23520000  1.0 0.162238724
C  C39  1  0.93600000  0.21190000  0.73520000  1.0 0.162238724
C  C40  1  0.06400000  0.71190000  0.76480000  1.0 0.162238724
C  C41  1  0.44060000  0.98470000  0.47540000  1.0 0.1693135215
C  C42  1  0.55940000  0.48470000  0.02460000  1.0 0.1693135215
C  C43  1  0.55940000  0.01530000  0.52460000  1.0 0.1693135215
C  C44  1  0.44060000  0.51530000  0.97540000  1.0 0.1693135215
C  C45  1  0.47440000  0.76440000  0.78580000  1.0 -0.1243866781
C  C46  1  0.52560000  0.26440000  0.71420000  1.0 -0.1243866781
C  C47  1  0.52560000  0.23560000  0.21420000  1.0 -0.129807567
C  C48  1  0.47440000  0.73560000  0.28580000  1.0 -0.129807567
C  C49  1  0.96680000  0.76140000  0.27930000  1.0 -0.1040062743
C  C50  1  0.03320000  0.26140000  0.22070000  1.0 -0.1040062743
C  C51  1  0.03320000  0.23860000  0.72070000  1.0 -0.1040062743
C  C52  1  0.96680000  0.73860000  0.77930000  1.0 -0.1040062743
C  C53  1  0.43350000  0.93710000  0.41590000  1.0 -0.0520736795
C  C54  1  0.56650000  0.43710000  0.08410000  1.0 -0.0520736795
C  C55  1  0.56650000  0.06290000  0.58410000  1.0 -0.0520736795
C  C56  1  0.43350000  0.56290000  0.91590000  1.0 -0.0520736795
C  C57  1  0.66910000  0.70230000  0.88690000  1.0 0.4076206809
C  C58  1  0.33090000  0.20230000  0.61310000  1.0 0.4076206809
C  C59  1  0.33090000  0.29770000  0.11310000  1.0 0.4076206809
C  C60  1  0.66910000  0.79770000  0.38690000  1.0 0.4076206809
C  C61  1  0.17620000  0.77090000  0.41680000  1.0 0.4076206809
C  C62  1  0.82380000  0.27090000  0.08320000  1.0 0.3991748338
C  C63  1  0.82380000  0.22910000  0.58320000  1.0 0.4076206809
C  C64  1  0.17620000  0.72910000  0.91680000  1.0 0.4076206809
C  C65  1  0.23890000  0.97500000  0.44350000  1.0 0.384985966
C  C66  1  0.76110000  0.47500000  0.05650000  1.0 0.384985966
C  C67  1  0.76110000  0.02500000  0.55650000  1.0 0.3853592401
C  C68  1  0.23890000  0.52500000  0.94350000  1.0 0.3853592401
C  C69  1  0.77530000  0.66420000  0.93930000  1.0 -0.5114212433
C  C70  1  0.22470000  0.16420000  0.56070000  1.0 -0.5114212433
C  C71  1  0.22470000  0.33580000  0.06070000  1.0 -0.5114212433
C  C72  1  0.77530000  0.83580000  0.43930000  1.0 -0.5114212433
C  C73  1  0.28890000  0.77830000  0.49650000  1.0 -0.5114212433
C  C74  1  0.71110000  0.27830000  0.00350000  1.0 -0.5114212433
C  C75  1  0.71110000  0.22170000  0.50350000  1.0 -0.5114212433
C  C76  1  0.28890000  0.72170000  0.99650000  1.0 -0.5114212433
C  C77  1  0.12450000  0.99610000  0.45650000  1.0 -0.5001294414
C  C78  1  0.87550000  0.49610000  0.04350000  1.0 -0.5001294414
C  C79  1  0.87550000  0.00390000  0.54350000  1.0 -0.5001294414
C  C80  1  0.12450000  0.50390000  0.95650000  1.0 -0.5001294414
N  N1  1  0.73420000  0.86640000  0.80660000  1.0 -0.3394921745
N  N2  1  0.26580000  0.36640000  0.69340000  1.0 -0.3394921745
N  N3  1  0.26580000  0.13360000  0.19340000  1.0 -0.3394921745
N  N4  1  0.73420000  0.63360000  0.30660000  1.0 -0.3394921745
N  N5  1  0.15980000  0.84350000  0.17240000  1.0 -0.3149453873
N  N6  1  0.84020000  0.34350000  0.32760000  1.0 -0.320244568
N  N7  1  0.84020000  0.15650000  0.82760000  1.0 -0.320244568
N  N8  1  0.15980000  0.65650000  0.67240000  1.0 -0.320244568
N  N9  1  0.55300000  0.94320000  0.69930000  1.0 -0.129807567
N  N10  1  0.44700000  0.44320000  0.80070000  1.0 -0.129807567
N  N11  1  0.44700000  0.05680000  0.30070000  1.0 -0.129807567
N  N12  1  0.55300000  0.55680000  0.19930000  1.0 -0.129807567
N  N13  1  0.95610000  0.83890000  0.01590000  1.0 -0.0725457976
N  N14  1  0.04390000  0.33890000  0.48410000  1.0 -0.0784236834
N  N15  1  0.04390000  0.16110000  0.98410000  1.0 -0.0784236834
N  N16  1  0.95610000  0.66110000  0.51590000  1.0 -0.0784236834
N  N17  1  0.67570000  0.96190000  0.72930000  1.0 -0.270109492
N  N18  1  0.32430000  0.46190000  0.77070000  1.0 -0.270109492
N  N19  1  0.32430000  0.03810000  0.27070000  1.0 -0.270109492
N  N20  1  0.67570000  0.53810000  0.22930000  1.0 -0.270109492
N  N21  1  0.05310000  0.87090000  0.01770000  1.0 -0.2601245442
N  N22  1  0.94690000  0.37090000  0.48230000  1.0 -0.2601245442
N  N23  1  0.94690000  0.12910000  0.98230000  1.0 -0.2601245442
N  N24  1  0.05310000  0.62910000  0.51770000  1.0 -0.2601245442
N  N25  1  0.68920000  0.75970000  0.86450000  1.0 -0.320244568
N  N26  1  0.31080000  0.25970000  0.63550000  1.0 -0.320244568
N  N27  1  0.31080000  0.24030000  0.13550000  1.0 -0.320244568
N  N28  1  0.68920000  0.74030000  0.36450000  1.0 -0.320244568
N  N29  1  0.17100000  0.79150000  0.33200000  1.0 -0.2982863361
N  N30  1  0.82900000  0.29150000  0.16800000  1.0 -0.2982863361
N  N31  1  0.82900000  0.20850000  0.66800000  1.0 -0.2982863361
N  N32  1  0.17100000  0.70850000  0.83200000  1.0 -0.2982863361
N  N33  1  0.34290000  0.00390000  0.49040000  1.0 -0.331585663
N  N34  1  0.65710000  0.50390000  0.00960000  1.0 -0.331585663
N  N35  1  0.65710000  0.99610000  0.50960000  1.0 -0.331585663
N  N36  1  0.34290000  0.49610000  0.99040000  1.0 -0.331585663
N  N37  1  0.46270000  0.79160000  0.31190000  1.0 -0.0906857537
N  N38  1  0.53730000  0.29160000  0.18810000  1.0 -0.0906857537
N  N39  1  0.53730000  0.20840000  0.68810000  1.0 -0.0906857537
N  N40  1  0.46270000  0.70840000  0.81190000  1.0 -0.0906857537
N  N41  1  0.97580000  0.73860000  0.36160000  1.0 -0.0906857537
N  N42  1  0.02420000  0.23860000  0.13840000  1.0 -0.0906857537
N  N43  1  0.02420000  0.26140000  0.63840000  1.0 -0.0906857537
N  N44  1  0.97580000  0.76140000  0.86160000  1.0 -0.0906857537
N  N45  1  0.33050000  0.90920000  0.37290000  1.0 -0.0725457976
N  N46  1  0.66950000  0.40920000  0.12710000  1.0 -0.0725457976
N  N47  1  0.66950000  0.09080000  0.62710000  1.0 -0.0725457976
N  N48  1  0.33050000  0.59080000  0.87290000  1.0 -0.0725457976
N  N49  1  0.55930000  0.67500000  0.86110000  1.0 -0.2601245442
N  N50  1  0.44070000  0.17500000  0.63890000  1.0 -0.2601245442
N  N51  1  0.44070000  0.32500000  0.13890000  1.0 -0.2601245442
N  N52  1  0.55930000  0.82500000  0.36110000  1.0 -0.2601245442
N  N53  1  0.08230000  0.74560000  0.43320000  1.0 -0.270109492
N  N54  1  0.91770000  0.24560000  0.06680000  1.0 -0.270109492
N  N55  1  0.91770000  0.25440000  0.56680000  1.0 -0.270109492
N  N56  1  0.08230000  0.75440000  0.93320000  1.0 -0.270109492
N  N57  1  0.22970000  0.92890000  0.38840000  1.0 -0.288690264
N  N58  1  0.77030000  0.42890000  0.11160000  1.0 -0.288690264
N  N59  1  0.77030000  0.07110000  0.61160000  1.0 -0.288690264
N  N60  1  0.22970000  0.57110000  0.88840000  1.0 -0.288690264
