# DDEC6 charges by PACMAN v1.1 (https://github.com/mtap-research/PACMAN-charge/)
data_XIDMED_ASR_pacman
_symmetry_space_group_name_H-M   'P 1'
_cell_length_a   15.79000000
_cell_length_b   15.79000000
_cell_length_c   16.05000000
_cell_angle_alpha   90.00000000
_cell_angle_beta   90.00000000
_cell_angle_gamma   120.00000000
_symmetry_Int_Tables_number   1
_chemical_formula_structural   Fe3C36O13F24
_chemical_formula_sum   'Fe6 C72 O26 F48'
_cell_volume   3465.53212023
_cell_formula_units_Z   2
loop_
 _symmetry_equiv_pos_site_id
 _symmetry_equiv_pos_as_xyz
  1  'x, y, z'
loop_
 _atom_site_type_symbol
 _atom_site_label
 _atom_site_symmetry_multiplicity
 _atom_site_fract_x
 _atom_site_fract_y
 _atom_site_fract_z
 _atom_site_occupancy
 _atom_site_charge
Fe  Fe1  1  0.52879000  0.26439000  0.25000000  1.0 1.0804668404
Fe  Fe2  1  0.26439000  0.52879000  0.75000000  1.0 1.0804668404
Fe  Fe3  1  0.73560000  0.26439000  0.25000000  1.0 1.0804668404
Fe  Fe4  1  0.73560000  0.47121000  0.25000000  1.0 1.0804668404
Fe  Fe5  1  0.26439000  0.73560000  0.75000000  1.0 1.0804668404
Fe  Fe6  1  0.47121000  0.73560000  0.75000000  1.0 1.0804668404
C  C1  1  0.57045000  0.14090000  0.13670000  1.0 0.6146360706
C  C2  1  0.42955000  0.57045000  0.63670000  1.0 0.6146360706
C  C3  1  0.85910000  0.42955000  0.13670000  1.0 0.6158484556
C  C4  1  0.57045000  0.42955000  0.13670000  1.0 0.6158484556
C  C5  1  0.14090000  0.57045000  0.63670000  1.0 0.6146360706
C  C6  1  0.57045000  0.42955000  0.36330000  1.0 0.6146360706
C  C7  1  0.14090000  0.57045000  0.86330000  1.0 0.6146360706
C  C8  1  0.57045000  0.14090000  0.36330000  1.0 0.6146360706
C  C9  1  0.42955000  0.85910000  0.63670000  1.0 0.6146360706
C  C10  1  0.85910000  0.42955000  0.36330000  1.0 0.6158484556
C  C11  1  0.42955000  0.85910000  0.86330000  1.0 0.6146360706
C  C12  1  0.42955000  0.57045000  0.86330000  1.0 0.6146360706
C  C13  1  0.53420000  0.06840000  0.06580000  1.0 -0.1046408601
C  C14  1  0.46580000  0.53420000  0.56580000  1.0 -0.1046408601
C  C15  1  0.93160000  0.46580000  0.06580000  1.0 -0.1046408601
C  C16  1  0.53420000  0.46580000  0.06580000  1.0 -0.1046408601
C  C17  1  0.06840000  0.53420000  0.56580000  1.0 -0.1058009528
C  C18  1  0.53420000  0.46580000  0.43420000  1.0 -0.1058009528
C  C19  1  0.06840000  0.53420000  0.93420000  1.0 -0.1046408601
C  C20  1  0.53420000  0.06840000  0.43420000  1.0 -0.1046408601
C  C21  1  0.46580000  0.93160000  0.56580000  1.0 -0.1046408601
C  C22  1  0.93160000  0.46580000  0.43420000  1.0 -0.1058009528
C  C23  1  0.46580000  0.93160000  0.93420000  1.0 -0.1046408601
C  C24  1  0.46580000  0.53420000  0.93420000  1.0 -0.1046408601
C  C25  1  0.51850000  0.08780000  0.98810000  1.0 0.0971325928
C  C26  1  0.43070000  0.51850000  0.48810000  1.0 0.0971325928
C  C27  1  0.91220000  0.43070000  0.98810000  1.0 0.0971325928
C  C28  1  0.56930000  0.48150000  0.98810000  1.0 0.0971325928
C  C29  1  0.08780000  0.56930000  0.48810000  1.0 0.0971325928
C  C30  1  0.51850000  0.43070000  0.51190000  1.0 0.0971325928
C  C31  1  0.08780000  0.51850000  0.01190000  1.0 0.0971325928
C  C32  1  0.56930000  0.08780000  0.51190000  1.0 0.0971325928
C  C33  1  0.48150000  0.91220000  0.48810000  1.0 0.0971325928
C  C34  1  0.91220000  0.48150000  0.51190000  1.0 0.0971325928
C  C35  1  0.43070000  0.91220000  0.01190000  1.0 0.0971325928
C  C36  1  0.48150000  0.56930000  0.01190000  1.0 0.0971325928
C  C37  1  0.48150000  0.91220000  0.01190000  1.0 0.0971325928
C  C38  1  0.56930000  0.48150000  0.51190000  1.0 0.0971325928
C  C39  1  0.08780000  0.56930000  0.01190000  1.0 0.0971325928
C  C40  1  0.43070000  0.51850000  0.01190000  1.0 0.0971325928
C  C41  1  0.91220000  0.43070000  0.51190000  1.0 0.0971325928
C  C42  1  0.48150000  0.56930000  0.48810000  1.0 0.0971325928
C  C43  1  0.91220000  0.48150000  0.98810000  1.0 0.0971325928
C  C44  1  0.43070000  0.91220000  0.48810000  1.0 0.0971325928
C  C45  1  0.51850000  0.08780000  0.51190000  1.0 0.0971325928
C  C46  1  0.08780000  0.51850000  0.48810000  1.0 0.0971325928
C  C47  1  0.56930000  0.08780000  0.98810000  1.0 0.0971325928
C  C48  1  0.51850000  0.43070000  0.98810000  1.0 0.0971325928
C  C49  1  0.54410000  0.01880000  0.92630000  1.0 0.0854247703
C  C50  1  0.52530000  0.54410000  0.42630000  1.0 0.0854247703
C  C51  1  0.98120000  0.52530000  0.92630000  1.0 0.0854247703
C  C52  1  0.47470000  0.45590000  0.92630000  1.0 0.0854247703
C  C53  1  0.01880000  0.47470000  0.42630000  1.0 0.0854247703
C  C54  1  0.54410000  0.52530000  0.57370000  1.0 0.0854247703
C  C55  1  0.01880000  0.54410000  0.07370000  1.0 0.0854247703
C  C56  1  0.47470000  0.01880000  0.57370000  1.0 0.0854247703
C  C57  1  0.45590000  0.98120000  0.42630000  1.0 0.0854247703
C  C58  1  0.98120000  0.45590000  0.57370000  1.0 0.0854247703
C  C59  1  0.52530000  0.98120000  0.07370000  1.0 0.0854247703
C  C60  1  0.45590000  0.47470000  0.07370000  1.0 0.0854247703
C  C61  1  0.45590000  0.98120000  0.07370000  1.0 0.0854247703
C  C62  1  0.47470000  0.45590000  0.57370000  1.0 0.0854247703
C  C63  1  0.01880000  0.47470000  0.07370000  1.0 0.0854247703
C  C64  1  0.52530000  0.54410000  0.07370000  1.0 0.0854247703
C  C65  1  0.98120000  0.52530000  0.57370000  1.0 0.0854247703
C  C66  1  0.45590000  0.47470000  0.42630000  1.0 0.0854247703
C  C67  1  0.98120000  0.45590000  0.92630000  1.0 0.0854247703
C  C68  1  0.52530000  0.98120000  0.42630000  1.0 0.0854247703
C  C69  1  0.54410000  0.01880000  0.57370000  1.0 0.0854247703
C  C70  1  0.01880000  0.54410000  0.42630000  1.0 0.0854247703
C  C71  1  0.47470000  0.01880000  0.92630000  1.0 0.0854247703
C  C72  1  0.54410000  0.52530000  0.92630000  1.0 0.0854247703
O  O1  1  0.66666667  0.33333333  0.25000000  1.0 -0.9093789123
O  O2  1  0.33333333  0.66666667  0.75000000  1.0 -0.9093789123
O  O3  1  0.51450000  0.16850000  0.15990000  1.0 -0.4804353081
O  O4  1  0.34600000  0.51450000  0.65990000  1.0 -0.4804353081
O  O5  1  0.83150000  0.34600000  0.15990000  1.0 -0.4804353081
O  O6  1  0.65400000  0.48550000  0.15990000  1.0 -0.4804353081
O  O7  1  0.16850000  0.65400000  0.65990000  1.0 -0.4804353081
O  O8  1  0.51450000  0.34600000  0.34010000  1.0 -0.4804353081
O  O9  1  0.16850000  0.51450000  0.84010000  1.0 -0.4804353081
O  O10  1  0.65400000  0.16850000  0.34010000  1.0 -0.4804353081
O  O11  1  0.48550000  0.83150000  0.65990000  1.0 -0.4804353081
O  O12  1  0.83150000  0.48550000  0.34010000  1.0 -0.4804353081
O  O13  1  0.34600000  0.83150000  0.84010000  1.0 -0.4804353081
O  O14  1  0.48550000  0.65400000  0.84010000  1.0 -0.4804353081
O  O15  1  0.48550000  0.83150000  0.84010000  1.0 -0.4804353081
O  O16  1  0.65400000  0.48550000  0.34010000  1.0 -0.4804353081
O  O17  1  0.16850000  0.65400000  0.84010000  1.0 -0.4804353081
O  O18  1  0.34600000  0.51450000  0.84010000  1.0 -0.4804353081
O  O19  1  0.83150000  0.34600000  0.34010000  1.0 -0.4804353081
O  O20  1  0.48550000  0.65400000  0.65990000  1.0 -0.4804353081
O  O21  1  0.83150000  0.48550000  0.15990000  1.0 -0.4804353081
O  O22  1  0.34600000  0.83150000  0.65990000  1.0 -0.4804353081
O  O23  1  0.51450000  0.16850000  0.34010000  1.0 -0.4804353081
O  O24  1  0.16850000  0.51450000  0.65990000  1.0 -0.4804353081
O  O25  1  0.65400000  0.16850000  0.15990000  1.0 -0.4804353081
O  O26  1  0.51450000  0.34600000  0.15990000  1.0 -0.4804353081
F  F1  1  0.53480000  0.18270000  0.97390000  1.0 -0.0765769589
F  F2  1  0.35210000  0.53480000  0.47390000  1.0 -0.0765769589
F  F3  1  0.81730000  0.35210000  0.97390000  1.0 -0.0765769589
F  F4  1  0.64790000  0.46520000  0.97390000  1.0 -0.0765769589
F  F5  1  0.18270000  0.64790000  0.47390000  1.0 -0.0765769589
F  F6  1  0.53480000  0.35210000  0.52610000  1.0 -0.0765769589
F  F7  1  0.18270000  0.53480000  0.02610000  1.0 -0.0765769589
F  F8  1  0.64790000  0.18270000  0.52610000  1.0 -0.0765769589
F  F9  1  0.46520000  0.81730000  0.47390000  1.0 -0.0765769589
F  F10  1  0.81730000  0.46520000  0.52610000  1.0 -0.0765769589
F  F11  1  0.35210000  0.81730000  0.02610000  1.0 -0.0765769589
F  F12  1  0.46520000  0.64790000  0.02610000  1.0 -0.0765769589
F  F13  1  0.46520000  0.81730000  0.02610000  1.0 -0.0765769589
F  F14  1  0.64790000  0.46520000  0.52610000  1.0 -0.0765769589
F  F15  1  0.18270000  0.64790000  0.02610000  1.0 -0.0765769589
F  F16  1  0.35210000  0.53480000  0.02610000  1.0 -0.0765769589
F  F17  1  0.81730000  0.35210000  0.52610000  1.0 -0.0765769589
F  F18  1  0.46520000  0.64790000  0.47390000  1.0 -0.0765769589
F  F19  1  0.81730000  0.46520000  0.97390000  1.0 -0.0765769589
F  F20  1  0.35210000  0.81730000  0.47390000  1.0 -0.0765769589
F  F21  1  0.53480000  0.18270000  0.52610000  1.0 -0.0740380785
F  F22  1  0.18270000  0.53480000  0.47390000  1.0 -0.0765769589
F  F23  1  0.64790000  0.18270000  0.97390000  1.0 -0.0765769589
F  F24  1  0.53480000  0.35210000  0.97390000  1.0 -0.0765769589
F  F25  1  0.58140000  0.04960000  0.84940000  1.0 -0.0740380785
F  F26  1  0.53180000  0.58140000  0.34940000  1.0 -0.0740380785
F  F27  1  0.95040000  0.53180000  0.84940000  1.0 -0.0740380785
F  F28  1  0.46820000  0.41860000  0.84940000  1.0 -0.0740380785
F  F29  1  0.04960000  0.46820000  0.34940000  1.0 -0.0765769589
F  F30  1  0.58140000  0.53180000  0.65060000  1.0 -0.0740380785
F  F31  1  0.04960000  0.58140000  0.15060000  1.0 -0.0765769589
F  F32  1  0.46820000  0.04960000  0.65060000  1.0 -0.0740380785
F  F33  1  0.41860000  0.95040000  0.34940000  1.0 -0.0765769589
F  F34  1  0.95040000  0.41860000  0.65060000  1.0 -0.0740380785
F  F35  1  0.53180000  0.95040000  0.15060000  1.0 -0.0765769589
F  F36  1  0.41860000  0.46820000  0.15060000  1.0 -0.0765769589
F  F37  1  0.41860000  0.95040000  0.15060000  1.0 -0.0765769589
F  F38  1  0.46820000  0.41860000  0.65060000  1.0 -0.0740380785
F  F39  1  0.04960000  0.46820000  0.15060000  1.0 -0.0765769589
F  F40  1  0.53180000  0.58140000  0.15060000  1.0 -0.0765769589
F  F41  1  0.95040000  0.53180000  0.65060000  1.0 -0.0740380785
F  F42  1  0.41860000  0.46820000  0.34940000  1.0 -0.0740380785
F  F43  1  0.95040000  0.41860000  0.84940000  1.0 -0.0740380785
F  F44  1  0.53180000  0.95040000  0.34940000  1.0 -0.0765769589
F  F45  1  0.58140000  0.04960000  0.65060000  1.0 -0.0740380785
F  F46  1  0.04960000  0.58140000  0.34940000  1.0 -0.0740380785
F  F47  1  0.46820000  0.04960000  0.84940000  1.0 -0.0740380785
F  F48  1  0.58140000  0.53180000  0.84940000  1.0 -0.0740380785
