# DDEC6 charges by PACMAN v1.1 (https://github.com/mtap-research/PACMAN-charge/)
data_XIFLUV_ASR_pacman
_symmetry_space_group_name_H-M   'P 1'
_cell_length_a   11.96580000
_cell_length_b   11.96580000
_cell_length_c   11.96580000
_cell_angle_alpha   94.78520000
_cell_angle_beta   94.78520000
_cell_angle_gamma   146.42400000
_symmetry_Int_Tables_number   1
_chemical_formula_structural   CdC12(NO3)2
_chemical_formula_sum   'Cd4 C48 N8 O24'
_cell_volume   907.13019615
_cell_formula_units_Z   4
loop_
 _symmetry_equiv_pos_site_id
 _symmetry_equiv_pos_as_xyz
  1  'x, y, z'
loop_
 _atom_site_type_symbol
 _atom_site_label
 _atom_site_symmetry_multiplicity
 _atom_site_fract_x
 _atom_site_fract_y
 _atom_site_fract_z
 _atom_site_occupancy
 _atom_site_charge
Cd  Cd1  1  0.20763000  0.79237000  0.00000000  1.0 0.8747002171
Cd  Cd2  1  0.79237000  0.20763000  0.00000000  1.0 0.8747002171
Cd  Cd3  1  0.20763000  0.20763000  0.41526000  1.0 0.8747002171
Cd  Cd4  1  0.79237000  0.79237000  0.58474000  1.0 0.8747002171
C  C1  1  0.05630000  0.75570000  0.21540000  1.0 -0.0191386952
C  C2  1  0.54030000  0.84090000  0.78460000  1.0 -0.0191386952
C  C3  1  0.84090000  0.05630000  0.30060000  1.0 -0.0191386952
C  C4  1  0.75570000  0.54030000  0.69940000  1.0 -0.0191386952
C  C5  1  0.94370000  0.15910000  0.69940000  1.0 -0.0191386952
C  C6  1  0.45970000  0.24430000  0.30060000  1.0 -0.0191386952
C  C7  1  0.15910000  0.45970000  0.21540000  1.0 -0.0191386952
C  C8  1  0.24430000  0.94370000  0.78460000  1.0 -0.0191386952
C  C9  1  0.94370000  0.24430000  0.78460000  1.0 -0.0191386952
C  C10  1  0.45970000  0.15910000  0.21540000  1.0 -0.0191386952
C  C11  1  0.15910000  0.94370000  0.69940000  1.0 -0.0191386952
C  C12  1  0.24430000  0.45970000  0.30060000  1.0 -0.0191386952
C  C13  1  0.05630000  0.84090000  0.30060000  1.0 -0.0191386952
C  C14  1  0.54030000  0.75570000  0.69940000  1.0 -0.0191386952
C  C15  1  0.84090000  0.54030000  0.78460000  1.0 -0.0191386952
C  C16  1  0.75570000  0.05630000  0.21540000  1.0 -0.0191386952
C  C17  1  0.94100000  0.55020000  0.18340000  1.0 0.2575513372
C  C18  1  0.36680000  0.75760000  0.81660000  1.0 0.2575513372
C  C19  1  0.75760000  0.94100000  0.39080000  1.0 0.2575513372
C  C20  1  0.55020000  0.36680000  0.60920000  1.0 0.2575513372
C  C21  1  0.05900000  0.24240000  0.60920000  1.0 0.2575513372
C  C22  1  0.63320000  0.44980000  0.39080000  1.0 0.2575513372
C  C23  1  0.24240000  0.63320000  0.18340000  1.0 0.2575513372
C  C24  1  0.44980000  0.05900000  0.81660000  1.0 0.2575513372
C  C25  1  0.05900000  0.44980000  0.81660000  1.0 0.2575513372
C  C26  1  0.63320000  0.24240000  0.18340000  1.0 0.2575513372
C  C27  1  0.24240000  0.05900000  0.60920000  1.0 0.2575513372
C  C28  1  0.44980000  0.63320000  0.39080000  1.0 0.2575513372
C  C29  1  0.94100000  0.75760000  0.39080000  1.0 0.2575513372
C  C30  1  0.36680000  0.55020000  0.60920000  1.0 0.2575513372
C  C31  1  0.75760000  0.36680000  0.81660000  1.0 0.2575513372
C  C32  1  0.55020000  0.94100000  0.18340000  1.0 0.2575513372
C  C33  1  0.26200000  0.06000000  0.20200000  1.0 0.1907227845
C  C34  1  0.85800000  0.06000000  0.79800000  1.0 0.1907227845
C  C35  1  0.06000000  0.26200000  0.20200000  1.0 0.1907227845
C  C36  1  0.06000000  0.85800000  0.79800000  1.0 0.1907227845
C  C37  1  0.73800000  0.94000000  0.79800000  1.0 0.1907227845
C  C38  1  0.14200000  0.94000000  0.20200000  1.0 0.1907227845
C  C39  1  0.94000000  0.14200000  0.20200000  1.0 0.1907227845
C  C40  1  0.94000000  0.73800000  0.79800000  1.0 0.1907227845
C  C41  1  0.41380000  0.25400000  0.15980000  1.0 -0.0716810719
C  C42  1  0.09420000  0.25400000  0.84020000  1.0 -0.0716810719
C  C43  1  0.25400000  0.41380000  0.15980000  1.0 -0.0716810719
C  C44  1  0.25400000  0.09420000  0.84020000  1.0 -0.0758532597
C  C45  1  0.58620000  0.74600000  0.84020000  1.0 -0.0716810719
C  C46  1  0.90580000  0.74600000  0.15980000  1.0 -0.0716810719
C  C47  1  0.74600000  0.90580000  0.15980000  1.0 -0.0716810719
C  C48  1  0.74600000  0.58620000  0.84020000  1.0 -0.0716810719
N  N1  1  0.22350000  0.93140000  0.15490000  1.0 -0.2312777987
N  N2  1  0.77650000  0.06860000  0.84510000  1.0 -0.2312777987
N  N3  1  0.06860000  0.22350000  0.29210000  1.0 -0.2312777987
N  N4  1  0.93140000  0.77650000  0.70790000  1.0 -0.2312777987
N  N5  1  0.77650000  0.93140000  0.70790000  1.0 -0.2312777987
N  N6  1  0.22350000  0.06860000  0.29210000  1.0 -0.2312777987
N  N7  1  0.93140000  0.22350000  0.15490000  1.0 -0.2312777987
N  N8  1  0.06860000  0.77650000  0.84510000  1.0 -0.2312777987
O  O1  1  0.82630000  0.41980000  0.24610000  1.0 -0.2609408437
O  O2  1  0.17370000  0.58020000  0.75390000  1.0 -0.2609408437
O  O3  1  0.58020000  0.82630000  0.40650000  1.0 -0.2609408437
O  O4  1  0.41980000  0.17370000  0.59350000  1.0 -0.2609408437
O  O5  1  0.17370000  0.41980000  0.59350000  1.0 -0.2609408437
O  O6  1  0.82630000  0.58020000  0.40650000  1.0 -0.2609408437
O  O7  1  0.41980000  0.82630000  0.24610000  1.0 -0.2609408437
O  O8  1  0.58020000  0.17370000  0.75390000  1.0 -0.2609408437
O  O9  1  0.95210000  0.50730000  0.08940000  1.0 -0.2702384698
O  O10  1  0.41790000  0.86270000  0.91060000  1.0 -0.2702384698
O  O11  1  0.86270000  0.95210000  0.44480000  1.0 -0.2702384698
O  O12  1  0.50730000  0.41790000  0.55520000  1.0 -0.2702384698
O  O13  1  0.04790000  0.13730000  0.55520000  1.0 -0.2702384698
O  O14  1  0.58210000  0.49270000  0.44480000  1.0 -0.2702384698
O  O15  1  0.13730000  0.58210000  0.08940000  1.0 -0.2702384698
O  O16  1  0.49270000  0.04790000  0.91060000  1.0 -0.2702384698
O  O17  1  0.04790000  0.49270000  0.91060000  1.0 -0.2702384698
O  O18  1  0.58210000  0.13730000  0.08940000  1.0 -0.2702384698
O  O19  1  0.13730000  0.04790000  0.55520000  1.0 -0.2702384698
O  O20  1  0.49270000  0.58210000  0.44480000  1.0 -0.2702384698
O  O21  1  0.95210000  0.86270000  0.44480000  1.0 -0.2702384698
O  O22  1  0.41790000  0.50730000  0.55520000  1.0 -0.2702384698
O  O23  1  0.86270000  0.41790000  0.91060000  1.0 -0.2702384698
O  O24  1  0.50730000  0.95210000  0.08940000  1.0 -0.2702384698
