# DDEC6 charges by PACMAN v1.1 (https://github.com/mtap-research/PACMAN-charge/)
data_XIFVUG_ASR_pacman
_symmetry_space_group_name_H-M   'P 1'
_cell_length_a   16.54630000
_cell_length_b   16.54630000
_cell_length_c   9.49770000
_cell_angle_alpha   83.44200000
_cell_angle_beta   96.55800000
_cell_angle_gamma   136.14400000
_symmetry_Int_Tables_number   1
_chemical_formula_structural   YbH16C20(NO8)2
_chemical_formula_sum   'Yb2 H32 C40 N4 O32'
_cell_volume   1787.89399195
_cell_formula_units_Z   2
loop_
 _symmetry_equiv_pos_site_id
 _symmetry_equiv_pos_as_xyz
  1  'x, y, z'
loop_
 _atom_site_type_symbol
 _atom_site_label
 _atom_site_symmetry_multiplicity
 _atom_site_fract_x
 _atom_site_fract_y
 _atom_site_fract_z
 _atom_site_occupancy
 _atom_site_charge
Yb  Yb1  1  0.06598000  0.06598000  0.25000000  1.0 1.3394276829
Yb  Yb2  1  0.93402000  0.93402000  0.75000000  1.0 1.3272121878
H  H1  1  0.80350000  0.18390000  0.77890000  1.0 0.2683303015
H  H2  1  0.83630000  0.29270000  0.72910000  1.0 0.2683303015
H  H3  1  0.86910000  0.11770000  0.67290000  1.0 0.1016545402
H  H4  1  0.06780000  0.43680000  0.35540000  1.0 0.0834790984
H  H5  1  0.07190000  0.30150000  0.33920000  1.0 0.0834790984
H  H6  1  0.90760000  0.42520000  0.58290000  1.0 0.0910381557
H  H7  1  0.26370000  0.25190000  0.32420000  1.0 0.2034074546
H  H8  1  0.80380000  0.87140000  0.32560000  1.0 0.212218962
H  H9  1  0.18390000  0.80350000  0.72110000  1.0 0.2683303015
H  H10  1  0.29270000  0.83630000  0.77090000  1.0 0.2683303015
H  H11  1  0.11770000  0.86910000  0.82710000  1.0 0.1016545402
H  H12  1  0.43680000  0.06780000  0.14460000  1.0 0.0834790984
H  H13  1  0.30150000  0.07190000  0.16080000  1.0 0.0834790984
H  H14  1  0.42520000  0.90760000  0.91710000  1.0 0.0910381557
H  H15  1  0.25190000  0.26370000  0.17580000  1.0 0.2034074546
H  H16  1  0.87140000  0.80380000  0.17440000  1.0 0.212218962
H  H17  1  0.19650000  0.81610000  0.22110000  1.0 0.2683303015
H  H18  1  0.16370000  0.70730000  0.27090000  1.0 0.2683303015
H  H19  1  0.13090000  0.88230000  0.32710000  1.0 0.1016545402
H  H20  1  0.93220000  0.56320000  0.64460000  1.0 0.0834790984
H  H21  1  0.92810000  0.69850000  0.66080000  1.0 0.0834790984
H  H22  1  0.09240000  0.57480000  0.41710000  1.0 0.0910381557
H  H23  1  0.73630000  0.74810000  0.67580000  1.0 0.2034074546
H  H24  1  0.19620000  0.12860000  0.67440000  1.0 0.212218962
H  H25  1  0.81610000  0.19650000  0.27890000  1.0 0.2683303015
H  H26  1  0.70730000  0.16370000  0.22910000  1.0 0.2683303015
H  H27  1  0.88230000  0.13090000  0.17290000  1.0 0.1016545402
H  H28  1  0.56320000  0.93220000  0.85540000  1.0 0.0834790984
H  H29  1  0.69850000  0.92810000  0.83920000  1.0 0.0834790984
H  H30  1  0.57480000  0.09240000  0.08290000  1.0 0.0910381557
H  H31  1  0.74810000  0.73630000  0.82420000  1.0 0.2034074546
H  H32  1  0.12860000  0.19620000  0.82560000  1.0 0.212218962
C  C1  1  0.97390000  0.11110000  0.49230000  1.0 0.4767872424
C  C2  1  0.97120000  0.19720000  0.50380000  1.0 -0.0386241848
C  C3  1  0.90840000  0.18160000  0.60880000  1.0 -0.2489340684
C  C4  1  0.90420000  0.26300000  0.61810000  1.0 0.2216109367
C  C5  1  0.96700000  0.36060000  0.52120000  1.0 0.0006050979
C  C6  1  0.02750000  0.37270000  0.41950000  1.0 -0.176864036
C  C7  1  0.03030000  0.29170000  0.40940000  1.0 -0.1985989629
C  C8  1  0.96550000  0.44790000  0.52920000  1.0 -0.1898253864
C  C9  1  0.27450000  0.29750000  0.24500000  1.0 0.1553512545
C  C10  1  0.80290000  0.82110000  0.28800000  1.0 0.2311277719
C  C11  1  0.11110000  0.97390000  0.00770000  1.0 0.4767872424
C  C12  1  0.19720000  0.97120000  0.99620000  1.0 -0.0386241848
C  C13  1  0.18160000  0.90840000  0.89120000  1.0 -0.2489340684
C  C14  1  0.26300000  0.90420000  0.88190000  1.0 0.2216109367
C  C15  1  0.36060000  0.96700000  0.97880000  1.0 0.0006050979
C  C16  1  0.37270000  0.02750000  0.08050000  1.0 -0.176864036
C  C17  1  0.29170000  0.03030000  0.09060000  1.0 -0.1985989629
C  C18  1  0.44790000  0.96550000  0.97080000  1.0 -0.1898253864
C  C19  1  0.29750000  0.27450000  0.25500000  1.0 0.1553512545
C  C20  1  0.82110000  0.80290000  0.21200000  1.0 0.2352356644
C  C21  1  0.02610000  0.88890000  0.50770000  1.0 0.4767872424
C  C22  1  0.02880000  0.80280000  0.49620000  1.0 -0.0386241848
C  C23  1  0.09160000  0.81840000  0.39120000  1.0 -0.2489340684
C  C24  1  0.09580000  0.73700000  0.38190000  1.0 0.2216109367
C  C25  1  0.03300000  0.63940000  0.47880000  1.0 0.0006050979
C  C26  1  0.97250000  0.62730000  0.58050000  1.0 -0.176864036
C  C27  1  0.96970000  0.70830000  0.59060000  1.0 -0.1985989629
C  C28  1  0.03450000  0.55210000  0.47080000  1.0 -0.1898253864
C  C29  1  0.72550000  0.70250000  0.75500000  1.0 0.1539655061
C  C30  1  0.19710000  0.17890000  0.71200000  1.0 0.2311277719
C  C31  1  0.88890000  0.02610000  0.99230000  1.0 0.4767872424
C  C32  1  0.80280000  0.02880000  0.00380000  1.0 -0.0386241848
C  C33  1  0.81840000  0.09160000  0.10880000  1.0 -0.2489340684
C  C34  1  0.73700000  0.09580000  0.11810000  1.0 0.2216109367
C  C35  1  0.63940000  0.03300000  0.02120000  1.0 0.0006050979
C  C36  1  0.62730000  0.97250000  0.91950000  1.0 -0.176864036
C  C37  1  0.70830000  0.96970000  0.90940000  1.0 -0.1985989629
C  C38  1  0.55210000  0.03450000  0.02920000  1.0 -0.1898253864
C  C39  1  0.70250000  0.72550000  0.74500000  1.0 0.1539655061
C  C40  1  0.17890000  0.19710000  0.78800000  1.0 0.2311277719
N  N1  1  0.84000000  0.24420000  0.72160000  1.0 -0.6029673784
N  N2  1  0.24420000  0.84000000  0.77840000  1.0 -0.6029673784
N  N3  1  0.16000000  0.75580000  0.27840000  1.0 -0.6029673784
N  N4  1  0.75580000  0.16000000  0.22160000  1.0 -0.6029673784
O  O1  1  0.36920000  0.40280000  0.22700000  1.0 -0.017253002
O  O2  1  0.02690000  0.12450000  0.39690000  1.0 -0.6952287225
O  O3  1  0.91540000  0.02160000  0.57890000  1.0 -0.7118205695
O  O4  1  0.89600000  0.89200000  0.28000000  1.0 0.0006050979
O  O5  1  0.19490000  0.25670000  0.15200000  1.0 -0.1566433615
O  O6  1  0.24380000  0.27620000  0.19000000  1.0 0.0664146239
O  O7  1  0.89950000  0.86250000  0.26000000  1.0 0.0006050979
O  O8  1  0.70370000  0.71790000  0.27200000  1.0 -0.0957286476
O  O9  1  0.40280000  0.36920000  0.27300000  1.0 -0.017253002
O  O10  1  0.12450000  0.02690000  0.10310000  1.0 -0.6952287225
O  O11  1  0.02160000  0.91540000  0.92110000  1.0 -0.7118205695
O  O12  1  0.89200000  0.89600000  0.22000000  1.0 0.0006050979
O  O13  1  0.25670000  0.19490000  0.34800000  1.0 -0.1566433615
O  O14  1  0.27620000  0.24380000  0.31000000  1.0 0.0664146239
O  O15  1  0.86250000  0.89950000  0.24000000  1.0 0.0006050979
O  O16  1  0.71790000  0.70370000  0.22800000  1.0 -0.0944207503
O  O17  1  0.63080000  0.59720000  0.77300000  1.0 -0.017253002
O  O18  1  0.97310000  0.87550000  0.60310000  1.0 -0.694182065
O  O19  1  0.08460000  0.97840000  0.42110000  1.0 -0.7118205695
O  O20  1  0.10400000  0.10800000  0.72000000  1.0 -0.0008510208
O  O21  1  0.80510000  0.74330000  0.84800000  1.0 -0.1566433615
O  O22  1  0.75620000  0.72380000  0.81000000  1.0 0.0664146239
O  O23  1  0.10050000  0.13750000  0.74000000  1.0 0.0006050979
O  O24  1  0.29630000  0.28210000  0.72800000  1.0 -0.0957286476
O  O25  1  0.59720000  0.63080000  0.72700000  1.0 -0.017253002
O  O26  1  0.87550000  0.97310000  0.89690000  1.0 -0.694182065
O  O27  1  0.97840000  0.08460000  0.07890000  1.0 -0.7118205695
O  O28  1  0.10800000  0.10400000  0.78000000  1.0 -0.0008510208
O  O29  1  0.74330000  0.80510000  0.65200000  1.0 -0.1566433615
O  O30  1  0.72380000  0.75620000  0.69000000  1.0 0.0664146239
O  O31  1  0.13750000  0.10050000  0.76000000  1.0 0.0006050979
O  O32  1  0.28210000  0.29630000  0.77200000  1.0 -0.0944207503
