# DDEC6 charges by PACMAN v1.1 (https://github.com/mtap-research/PACMAN-charge/)
data_XIFVOA_FSR_pacman
_symmetry_space_group_name_H-M   'P 1'
_cell_length_a   16.59640000
_cell_length_b   16.59640000
_cell_length_c   9.49890000
_cell_angle_alpha   83.85100000
_cell_angle_beta   96.14900000
_cell_angle_gamma   136.34300000
_symmetry_Int_Tables_number   1
_chemical_formula_structural   TmH14C18(NO5)2
_chemical_formula_sum   'Tm2 H28 C36 N4 O20'
_cell_volume   1794.12761263
_cell_formula_units_Z   2
loop_
 _symmetry_equiv_pos_site_id
 _symmetry_equiv_pos_as_xyz
  1  'x, y, z'
loop_
 _atom_site_type_symbol
 _atom_site_label
 _atom_site_symmetry_multiplicity
 _atom_site_fract_x
 _atom_site_fract_y
 _atom_site_fract_z
 _atom_site_occupancy
 _atom_site_charge
Tm  Tm1  1  0.06667000  0.06667000  0.25000000  1.0 1.9235422439
Tm  Tm2  1  0.93333000  0.93333000  0.75000000  1.0 1.9235422439
H  H1  1  0.83400000  0.29340000  0.72630000  1.0 0.2872737549
H  H2  1  0.80290000  0.18610000  0.77920000  1.0 0.2872737549
H  H3  1  0.86920000  0.11980000  0.67340000  1.0 0.1114004405
H  H4  1  0.06970000  0.43790000  0.35600000  1.0 0.1114004405
H  H5  1  0.07220000  0.30160000  0.33870000  1.0 0.122216513
H  H6  1  0.90330000  0.42390000  0.58020000  1.0 0.1114004405
H  H7  1  0.79170000  0.86610000  0.35400000  1.0 0.2125693487
H  H8  1  0.29340000  0.83400000  0.77370000  1.0 0.2872737549
H  H9  1  0.18610000  0.80290000  0.72080000  1.0 0.2872737549
H  H10  1  0.11980000  0.86920000  0.82660000  1.0 0.1114004405
H  H11  1  0.43790000  0.06970000  0.14400000  1.0 0.1114004405
H  H12  1  0.30160000  0.07220000  0.16130000  1.0 0.122216513
H  H13  1  0.42390000  0.90330000  0.91980000  1.0 0.1114004405
H  H14  1  0.86610000  0.79170000  0.14600000  1.0 0.2125693487
H  H15  1  0.16600000  0.70660000  0.27370000  1.0 0.2872737549
H  H16  1  0.19710000  0.81390000  0.22080000  1.0 0.2872737549
H  H17  1  0.13080000  0.88020000  0.32660000  1.0 0.1114004405
H  H18  1  0.93030000  0.56210000  0.64400000  1.0 0.1114004405
H  H19  1  0.92780000  0.69840000  0.66130000  1.0 0.122216513
H  H20  1  0.09670000  0.57610000  0.41980000  1.0 0.1114004405
H  H21  1  0.20830000  0.13390000  0.64600000  1.0 0.2125693487
H  H22  1  0.70660000  0.16600000  0.22630000  1.0 0.2872737549
H  H23  1  0.81390000  0.19710000  0.27920000  1.0 0.2872737549
H  H24  1  0.88020000  0.13080000  0.17340000  1.0 0.1114004405
H  H25  1  0.56210000  0.93030000  0.85600000  1.0 0.1114004405
H  H26  1  0.69840000  0.92780000  0.83870000  1.0 0.122216513
H  H27  1  0.57610000  0.09670000  0.08020000  1.0 0.1114004405
H  H28  1  0.13390000  0.20830000  0.85400000  1.0 0.2125693487
C  C1  1  0.97290000  0.11030000  0.49580000  1.0 0.6460335083
C  C2  1  0.97100000  0.19780000  0.50600000  1.0 -0.026394675
C  C3  1  0.90880000  0.18380000  0.60940000  1.0 -0.2440614946
C  C4  1  0.90440000  0.26460000  0.61950000  1.0 0.2372683264
C  C5  1  0.96500000  0.36020000  0.52200000  1.0 0.0112866558
C  C6  1  0.02830000  0.37350000  0.41920000  1.0 -0.1620765202
C  C7  1  0.03100000  0.29260000  0.40910000  1.0 -0.1665069726
C  C8  1  0.96240000  0.44640000  0.52970000  1.0 -0.1665069726
C  C9  1  0.79490000  0.82250000  0.30600000  1.0 0.2125693487
C  C10  1  0.11030000  0.97290000  0.00420000  1.0 0.6460335083
C  C11  1  0.19780000  0.97100000  0.99400000  1.0 -0.026394675
C  C12  1  0.18380000  0.90880000  0.89060000  1.0 -0.2440614946
C  C13  1  0.26460000  0.90440000  0.88050000  1.0 0.2372683264
C  C14  1  0.36020000  0.96500000  0.97800000  1.0 0.0112866558
C  C15  1  0.37350000  0.02830000  0.08080000  1.0 -0.1620765202
C  C16  1  0.29260000  0.03100000  0.09090000  1.0 -0.1665069726
C  C17  1  0.44640000  0.96240000  0.97030000  1.0 -0.1665069726
C  C18  1  0.82250000  0.79490000  0.19400000  1.0 0.2125693487
C  C19  1  0.02710000  0.88970000  0.50420000  1.0 0.6460335083
C  C20  1  0.02900000  0.80220000  0.49400000  1.0 -0.026394675
C  C21  1  0.09120000  0.81620000  0.39060000  1.0 -0.2440614946
C  C22  1  0.09560000  0.73540000  0.38050000  1.0 0.2372683264
C  C23  1  0.03500000  0.63980000  0.47800000  1.0 0.0112866558
C  C24  1  0.97170000  0.62650000  0.58080000  1.0 -0.1620765202
C  C25  1  0.96900000  0.70740000  0.59090000  1.0 -0.1665069726
C  C26  1  0.03760000  0.55360000  0.47030000  1.0 -0.1665069726
C  C27  1  0.20510000  0.17750000  0.69400000  1.0 0.2028840906
C  C28  1  0.88970000  0.02710000  0.99580000  1.0 0.6460335083
C  C29  1  0.80220000  0.02900000  0.00600000  1.0 -0.026394675
C  C30  1  0.81620000  0.09120000  0.10940000  1.0 -0.2440614946
C  C31  1  0.73540000  0.09560000  0.11950000  1.0 0.2372683264
C  C32  1  0.63980000  0.03500000  0.02200000  1.0 0.0112866558
C  C33  1  0.62650000  0.97170000  0.91920000  1.0 -0.1620765202
C  C34  1  0.70740000  0.96900000  0.90910000  1.0 -0.1665069726
C  C35  1  0.55360000  0.03760000  0.02970000  1.0 -0.1665069726
C  C36  1  0.17750000  0.20510000  0.80600000  1.0 0.2028840906
N  N1  1  0.83890000  0.24570000  0.72090000  1.0 -0.577864381
N  N2  1  0.24570000  0.83890000  0.77910000  1.0 -0.577864381
N  N3  1  0.16110000  0.75430000  0.27910000  1.0 -0.577864381
N  N4  1  0.75430000  0.16110000  0.22090000  1.0 -0.577864381
O  O1  1  0.69690000  0.71070000  0.28240000  1.0 0.0033957085
O  O2  1  0.03060000  0.12660000  0.40190000  1.0 -0.680756303
O  O3  1  0.91500000  0.02320000  0.58240000  1.0 -0.701250764
O  O4  1  0.22970000  0.27330000  0.17880000  1.0 -0.4472700082
O  O5  1  0.89980000  0.87460000  0.25990000  1.0 -0.1403013789
O  O6  1  0.71070000  0.69690000  0.21760000  1.0 0.0033957085
O  O7  1  0.12660000  0.03060000  0.09810000  1.0 -0.680756303
O  O8  1  0.02320000  0.91500000  0.91760000  1.0 -0.701250764
O  O9  1  0.27330000  0.22970000  0.32120000  1.0 -0.4472700082
O  O10  1  0.87460000  0.89980000  0.24010000  1.0 -0.1403013789
O  O11  1  0.30310000  0.28930000  0.71760000  1.0 0.0033957085
O  O12  1  0.96940000  0.87340000  0.59810000  1.0 -0.680756303
O  O13  1  0.08500000  0.97680000  0.41760000  1.0 -0.701250764
O  O14  1  0.77030000  0.72670000  0.82120000  1.0 -0.4472700082
O  O15  1  0.10020000  0.12540000  0.74010000  1.0 -0.1403013789
O  O16  1  0.28930000  0.30310000  0.78240000  1.0 0.0112866558
O  O17  1  0.87340000  0.96940000  0.90190000  1.0 -0.680756303
O  O18  1  0.97680000  0.08500000  0.08240000  1.0 -0.701250764
O  O19  1  0.72670000  0.77030000  0.67880000  1.0 -0.4472700082
O  O20  1  0.12540000  0.10020000  0.75990000  1.0 -0.1403013789
