# DDEC6 charges by PACMAN v1.1 (https://github.com/mtap-research/PACMAN-charge/)
data_XIGLOQ_ASR_pacman
_symmetry_space_group_name_H-M   'P 1'
_cell_length_a   13.62220000
_cell_length_b   13.62220000
_cell_length_c   13.62220000
_cell_angle_alpha   97.77330000
_cell_angle_beta   97.77330000
_cell_angle_gamma   97.77330000
_symmetry_Int_Tables_number   1
_chemical_formula_structural   CdH32(C19N10)2
_chemical_formula_sum   'Cd3 H96 C114 N60'
_cell_volume   2451.01005448
_cell_formula_units_Z   3
loop_
 _symmetry_equiv_pos_site_id
 _symmetry_equiv_pos_as_xyz
  1  'x, y, z'
loop_
 _atom_site_type_symbol
 _atom_site_label
 _atom_site_symmetry_multiplicity
 _atom_site_fract_x
 _atom_site_fract_y
 _atom_site_fract_z
 _atom_site_occupancy
 _atom_site_charge
Cd  Cd1  1  0.00000000  0.00000000  0.00000000  1.0 0.6183866244
Cd  Cd2  1  0.20544000  0.20544000  0.20544000  1.0 0.6040879768
Cd  Cd3  1  0.79456000  0.79456000  0.79456000  1.0 0.6040879768
H  H1  1  0.19260000  0.16420000  0.69390000  1.0 0.1030089527
H  H2  1  0.16420000  0.69390000  0.19260000  1.0 0.1030089527
H  H3  1  0.69390000  0.19260000  0.16420000  1.0 0.1030089527
H  H4  1  0.80740000  0.30610000  0.83580000  1.0 0.1030089527
H  H5  1  0.30610000  0.83580000  0.80740000  1.0 0.1030089527
H  H6  1  0.83580000  0.80740000  0.30610000  1.0 0.1030089527
H  H7  1  0.80740000  0.83580000  0.30610000  1.0 0.1030089527
H  H8  1  0.83580000  0.30610000  0.80740000  1.0 0.1030089527
H  H9  1  0.30610000  0.80740000  0.83580000  1.0 0.1030089527
H  H10  1  0.19260000  0.69390000  0.16420000  1.0 0.1030089527
H  H11  1  0.69390000  0.16420000  0.19260000  1.0 0.1030089527
H  H12  1  0.16420000  0.19260000  0.69390000  1.0 0.1030089527
H  H13  1  0.30760000  0.42740000  0.61090000  1.0 0.0797147137
H  H14  1  0.42740000  0.61090000  0.30760000  1.0 0.0797147137
H  H15  1  0.61090000  0.30760000  0.42740000  1.0 0.0797147137
H  H16  1  0.69240000  0.38910000  0.57260000  1.0 0.0797147137
H  H17  1  0.38910000  0.57260000  0.69240000  1.0 0.0797147137
H  H18  1  0.57260000  0.69240000  0.38910000  1.0 0.0797147137
H  H19  1  0.69240000  0.57260000  0.38910000  1.0 0.0797147137
H  H20  1  0.57260000  0.38910000  0.69240000  1.0 0.0797147137
H  H21  1  0.38910000  0.69240000  0.57260000  1.0 0.0797147137
H  H22  1  0.30760000  0.61090000  0.42740000  1.0 0.0797147137
H  H23  1  0.61090000  0.42740000  0.30760000  1.0 0.0797147137
H  H24  1  0.42740000  0.30760000  0.61090000  1.0 0.0797147137
H  H25  1  0.35990000  0.49270000  0.78160000  1.0 0.1030089527
H  H26  1  0.49270000  0.78160000  0.35990000  1.0 0.1030089527
H  H27  1  0.78160000  0.35990000  0.49270000  1.0 0.1030089527
H  H28  1  0.64010000  0.21840000  0.50730000  1.0 0.1030089527
H  H29  1  0.21840000  0.50730000  0.64010000  1.0 0.1030089527
H  H30  1  0.50730000  0.64010000  0.21840000  1.0 0.1030089527
H  H31  1  0.64010000  0.50730000  0.21840000  1.0 0.1030089527
H  H32  1  0.50730000  0.21840000  0.64010000  1.0 0.1030089527
H  H33  1  0.21840000  0.64010000  0.50730000  1.0 0.1030089527
H  H34  1  0.35990000  0.78160000  0.49270000  1.0 0.1030089527
H  H35  1  0.78160000  0.49270000  0.35990000  1.0 0.1030089527
H  H36  1  0.49270000  0.35990000  0.78160000  1.0 0.1030089527
H  H37  1  0.29910000  0.40690000  0.90300000  1.0 0.0900280988
H  H38  1  0.40690000  0.90300000  0.29910000  1.0 0.0900280988
H  H39  1  0.90300000  0.29910000  0.40690000  1.0 0.0900280988
H  H40  1  0.70090000  0.09700000  0.59310000  1.0 0.0900280988
H  H41  1  0.09700000  0.59310000  0.70090000  1.0 0.0900280988
H  H42  1  0.59310000  0.70090000  0.09700000  1.0 0.0900280988
H  H43  1  0.70090000  0.59310000  0.09700000  1.0 0.0900280988
H  H44  1  0.59310000  0.09700000  0.70090000  1.0 0.0900280988
H  H45  1  0.09700000  0.70090000  0.59310000  1.0 0.0900280988
H  H46  1  0.29910000  0.90300000  0.40690000  1.0 0.0900280988
H  H47  1  0.90300000  0.40690000  0.29910000  1.0 0.0900280988
H  H48  1  0.40690000  0.29910000  0.90300000  1.0 0.0900280988
H  H49  1  0.27990000  0.31520000  0.01570000  1.0 0.0596871662
H  H50  1  0.31520000  0.01570000  0.27990000  1.0 0.0596871662
H  H51  1  0.01570000  0.27990000  0.31520000  1.0 0.0596871662
H  H52  1  0.72010000  0.98430000  0.68480000  1.0 0.0596871662
H  H53  1  0.98430000  0.68480000  0.72010000  1.0 0.0596871662
H  H54  1  0.68480000  0.72010000  0.98430000  1.0 0.0596871662
H  H55  1  0.72010000  0.68480000  0.98430000  1.0 0.0596871662
H  H56  1  0.68480000  0.98430000  0.72010000  1.0 0.0596871662
H  H57  1  0.98430000  0.72010000  0.68480000  1.0 0.0596871662
H  H58  1  0.27990000  0.01570000  0.31520000  1.0 0.0596871662
H  H59  1  0.01570000  0.31520000  0.27990000  1.0 0.0596871662
H  H60  1  0.31520000  0.27990000  0.01570000  1.0 0.0596871662
H  H61  1  0.08920000  0.11810000  0.81250000  1.0 0.1030089527
H  H62  1  0.11810000  0.81250000  0.08920000  1.0 0.1030089527
H  H63  1  0.81250000  0.08920000  0.11810000  1.0 0.1030089527
H  H64  1  0.91080000  0.18750000  0.88190000  1.0 0.1030089527
H  H65  1  0.18750000  0.88190000  0.91080000  1.0 0.1030089527
H  H66  1  0.88190000  0.91080000  0.18750000  1.0 0.1030089527
H  H67  1  0.91080000  0.88190000  0.18750000  1.0 0.1030089527
H  H68  1  0.88190000  0.18750000  0.91080000  1.0 0.1030089527
H  H69  1  0.18750000  0.91080000  0.88190000  1.0 0.1030089527
H  H70  1  0.08920000  0.81250000  0.11810000  1.0 0.1030089527
H  H71  1  0.81250000  0.11810000  0.08920000  1.0 0.1030089527
H  H72  1  0.11810000  0.08920000  0.81250000  1.0 0.1030089527
H  H73  1  0.07580000  0.16950000  0.53720000  1.0 0.0596871662
H  H74  1  0.16950000  0.53720000  0.07580000  1.0 0.0596871662
H  H75  1  0.53720000  0.07580000  0.16950000  1.0 0.0596871662
H  H76  1  0.92420000  0.46280000  0.83050000  1.0 0.0596871662
H  H77  1  0.46280000  0.83050000  0.92420000  1.0 0.0596871662
H  H78  1  0.83050000  0.92420000  0.46280000  1.0 0.0596871662
H  H79  1  0.92420000  0.83050000  0.46280000  1.0 0.0596871662
H  H80  1  0.83050000  0.46280000  0.92420000  1.0 0.0596871662
H  H81  1  0.46280000  0.92420000  0.83050000  1.0 0.0596871662
H  H82  1  0.07580000  0.53720000  0.16950000  1.0 0.0596871662
H  H83  1  0.53720000  0.16950000  0.07580000  1.0 0.0596871662
H  H84  1  0.16950000  0.07580000  0.53720000  1.0 0.0596871662
H  H85  1  0.32810000  0.29170000  0.45910000  1.0 0.0797147137
H  H86  1  0.29170000  0.45910000  0.32810000  1.0 0.0797147137
H  H87  1  0.45910000  0.32810000  0.29170000  1.0 0.0797147137
H  H88  1  0.67190000  0.54090000  0.70830000  1.0 0.0797147137
H  H89  1  0.54090000  0.70830000  0.67190000  1.0 0.0797147137
H  H90  1  0.70830000  0.67190000  0.54090000  1.0 0.0797147137
H  H91  1  0.67190000  0.70830000  0.54090000  1.0 0.0797147137
H  H92  1  0.70830000  0.54090000  0.67190000  1.0 0.0797147137
H  H93  1  0.54090000  0.67190000  0.70830000  1.0 0.0797147137
H  H94  1  0.32810000  0.45910000  0.29170000  1.0 0.0797147137
H  H95  1  0.45910000  0.29170000  0.32810000  1.0 0.0797147137
H  H96  1  0.29170000  0.32810000  0.45910000  1.0 0.0797147137
C  C1  1  0.24370000  0.27870000  0.81060000  1.0 0.1284807257
C  C2  1  0.27870000  0.81060000  0.24370000  1.0 0.1284807257
C  C3  1  0.81060000  0.24370000  0.27870000  1.0 0.1284807257
C  C4  1  0.75630000  0.18940000  0.72130000  1.0 0.1284807257
C  C5  1  0.18940000  0.72130000  0.75630000  1.0 0.1284807257
C  C6  1  0.72130000  0.75630000  0.18940000  1.0 0.1284807257
C  C7  1  0.75630000  0.72130000  0.18940000  1.0 0.1284807257
C  C8  1  0.72130000  0.18940000  0.75630000  1.0 0.1284807257
C  C9  1  0.18940000  0.75630000  0.72130000  1.0 0.1284807257
C  C10  1  0.24370000  0.81060000  0.27870000  1.0 0.1284807257
C  C11  1  0.81060000  0.27870000  0.24370000  1.0 0.1284807257
C  C12  1  0.27870000  0.24370000  0.81060000  1.0 0.1284807257
C  C13  1  0.22170000  0.23400000  0.71170000  1.0 -0.3031615931
C  C14  1  0.23400000  0.71170000  0.22170000  1.0 -0.3031615931
C  C15  1  0.71170000  0.22170000  0.23400000  1.0 -0.3031615931
C  C16  1  0.77830000  0.28830000  0.76600000  1.0 -0.3031615931
C  C17  1  0.28830000  0.76600000  0.77830000  1.0 -0.3031615931
C  C18  1  0.76600000  0.77830000  0.28830000  1.0 -0.3031615931
C  C19  1  0.77830000  0.76600000  0.28830000  1.0 -0.3031615931
C  C20  1  0.76600000  0.28830000  0.77830000  1.0 -0.3031615931
C  C21  1  0.28830000  0.77830000  0.76600000  1.0 -0.3031615931
C  C22  1  0.22170000  0.71170000  0.23400000  1.0 -0.3031615931
C  C23  1  0.71170000  0.23400000  0.22170000  1.0 -0.3031615931
C  C24  1  0.23400000  0.22170000  0.71170000  1.0 -0.3031615931
C  C25  1  0.25030000  0.28970000  0.63940000  1.0 0.1284807257
C  C26  1  0.28970000  0.63940000  0.25030000  1.0 0.1284807257
C  C27  1  0.63940000  0.25030000  0.28970000  1.0 0.1284807257
C  C28  1  0.74970000  0.36060000  0.71030000  1.0 0.1284807257
C  C29  1  0.36060000  0.71030000  0.74970000  1.0 0.1284807257
C  C30  1  0.71030000  0.74970000  0.36060000  1.0 0.1284807257
C  C31  1  0.74970000  0.71030000  0.36060000  1.0 0.1284807257
C  C32  1  0.71030000  0.36060000  0.74970000  1.0 0.1284807257
C  C33  1  0.36060000  0.74970000  0.71030000  1.0 0.1284807257
C  C34  1  0.25030000  0.63940000  0.28970000  1.0 0.1284807257
C  C35  1  0.63940000  0.28970000  0.25030000  1.0 0.1284807257
C  C36  1  0.28970000  0.25030000  0.63940000  1.0 0.1284807257
C  C37  1  0.29870000  0.38700000  0.66290000  1.0 -0.1439676452
C  C38  1  0.38700000  0.66290000  0.29870000  1.0 -0.1439676452
C  C39  1  0.66290000  0.29870000  0.38700000  1.0 -0.1439676452
C  C40  1  0.70130000  0.33710000  0.61300000  1.0 -0.1439676452
C  C41  1  0.33710000  0.61300000  0.70130000  1.0 -0.1439676452
C  C42  1  0.61300000  0.70130000  0.33710000  1.0 -0.1439676452
C  C43  1  0.70130000  0.61300000  0.33710000  1.0 -0.1439676452
C  C44  1  0.61300000  0.33710000  0.70130000  1.0 -0.1439676452
C  C45  1  0.33710000  0.70130000  0.61300000  1.0 -0.1439676452
C  C46  1  0.29870000  0.66290000  0.38700000  1.0 -0.1439676452
C  C47  1  0.66290000  0.38700000  0.29870000  1.0 -0.1439676452
C  C48  1  0.38700000  0.29870000  0.66290000  1.0 -0.1439676452
C  C49  1  0.31800000  0.42810000  0.76240000  1.0 -0.2011654469
C  C50  1  0.42810000  0.76240000  0.31800000  1.0 -0.2011654469
C  C51  1  0.76240000  0.31800000  0.42810000  1.0 -0.2011654469
C  C52  1  0.68200000  0.23760000  0.57190000  1.0 -0.2011654469
C  C53  1  0.23760000  0.57190000  0.68200000  1.0 -0.2011654469
C  C54  1  0.57190000  0.68200000  0.23760000  1.0 -0.2011654469
C  C55  1  0.68200000  0.57190000  0.23760000  1.0 -0.2011654469
C  C56  1  0.57190000  0.23760000  0.68200000  1.0 -0.2011654469
C  C57  1  0.23760000  0.68200000  0.57190000  1.0 -0.2011654469
C  C58  1  0.31800000  0.76240000  0.42810000  1.0 -0.2011654469
C  C59  1  0.76240000  0.42810000  0.31800000  1.0 -0.2011654469
C  C60  1  0.42810000  0.31800000  0.76240000  1.0 -0.2011654469
C  C61  1  0.29680000  0.37240000  0.83600000  1.0 -0.0886521357
C  C62  1  0.37240000  0.83600000  0.29680000  1.0 -0.0886521357
C  C63  1  0.83600000  0.29680000  0.37240000  1.0 -0.0886521357
C  C64  1  0.70320000  0.16400000  0.62760000  1.0 -0.0886521357
C  C65  1  0.16400000  0.62760000  0.70320000  1.0 -0.0886521357
C  C66  1  0.62760000  0.70320000  0.16400000  1.0 -0.0886521357
C  C67  1  0.70320000  0.62760000  0.16400000  1.0 -0.0886521357
C  C68  1  0.62760000  0.16400000  0.70320000  1.0 -0.0886521357
C  C69  1  0.16400000  0.70320000  0.62760000  1.0 -0.0886521357
C  C70  1  0.29680000  0.83600000  0.37240000  1.0 -0.0886521357
C  C71  1  0.83600000  0.37240000  0.29680000  1.0 -0.0886521357
C  C72  1  0.37240000  0.29680000  0.83600000  1.0 -0.0886521357
C  C73  1  0.23010000  0.25840000  0.98460000  1.0 0.071586201
C  C74  1  0.25840000  0.98460000  0.23010000  1.0 0.071586201
C  C75  1  0.98460000  0.23010000  0.25840000  1.0 0.071586201
C  C76  1  0.76990000  0.01540000  0.74160000  1.0 0.071586201
C  C77  1  0.01540000  0.74160000  0.76990000  1.0 0.071586201
C  C78  1  0.74160000  0.76990000  0.01540000  1.0 0.071586201
C  C79  1  0.76990000  0.74160000  0.01540000  1.0 0.071586201
C  C80  1  0.74160000  0.01540000  0.76990000  1.0 0.071586201
C  C81  1  0.01540000  0.76990000  0.74160000  1.0 0.071586201
C  C82  1  0.23010000  0.98460000  0.25840000  1.0 0.071586201
C  C83  1  0.98460000  0.25840000  0.23010000  1.0 0.071586201
C  C84  1  0.25840000  0.23010000  0.98460000  1.0 0.071586201
C  C85  1  0.13211000  0.14791000  0.87451000  1.0 -0.1889700933
C  C86  1  0.14791000  0.87451000  0.13211000  1.0 -0.1889700933
C  C87  1  0.87451000  0.13211000  0.14791000  1.0 -0.1889700933
C  C88  1  0.86789000  0.12549000  0.85209000  1.0 -0.1889700933
C  C89  1  0.12549000  0.85209000  0.86789000  1.0 -0.1889700933
C  C90  1  0.85209000  0.86789000  0.12549000  1.0 -0.1889700933
C  C91  1  0.86789000  0.85209000  0.12549000  1.0 -0.1889700933
C  C92  1  0.85209000  0.12549000  0.86789000  1.0 -0.1889700933
C  C93  1  0.12549000  0.86789000  0.85209000  1.0 -0.1889700933
C  C94  1  0.13211000  0.87451000  0.14791000  1.0 -0.1889700933
C  C95  1  0.87451000  0.14791000  0.13211000  1.0 -0.1889700933
C  C96  1  0.14791000  0.13211000  0.87451000  1.0 -0.1889700933
C  C97  1  0.12810000  0.18630000  0.49840000  1.0 0.0227985895
C  C98  1  0.18630000  0.49840000  0.12810000  1.0 0.0227985895
C  C99  1  0.49840000  0.12810000  0.18630000  1.0 0.0227985895
C  C100  1  0.87190000  0.50160000  0.81370000  1.0 0.0227985895
C  C101  1  0.50160000  0.81370000  0.87190000  1.0 0.0227985895
C  C102  1  0.81370000  0.87190000  0.50160000  1.0 0.0227985895
C  C103  1  0.87190000  0.81370000  0.50160000  1.0 0.0227985895
C  C104  1  0.81370000  0.50160000  0.87190000  1.0 0.0227985895
C  C105  1  0.50160000  0.87190000  0.81370000  1.0 0.0227985895
C  C106  1  0.12810000  0.49840000  0.18630000  1.0 0.0227985895
C  C107  1  0.49840000  0.18630000  0.12810000  1.0 0.0227985895
C  C108  1  0.18630000  0.12810000  0.49840000  1.0 0.0227985895
C  C109  1  0.25935000  0.25935000  0.45520000  1.0 -0.0258821115
C  C110  1  0.25935000  0.45520000  0.25935000  1.0 -0.0258821115
C  C111  1  0.45520000  0.25935000  0.25935000  1.0 -0.0258821115
C  C112  1  0.74065000  0.54480000  0.74065000  1.0 -0.0258821115
C  C113  1  0.54480000  0.74065000  0.74065000  1.0 -0.0258821115
C  C114  1  0.74065000  0.74065000  0.54480000  1.0 -0.0258821115
N  N1  1  0.20593000  0.22873000  0.88433000  1.0 0.0900280988
N  N2  1  0.22873000  0.88433000  0.20593000  1.0 0.0900280988
N  N3  1  0.88433000  0.20593000  0.22873000  1.0 0.0900280988
N  N4  1  0.79407000  0.11567000  0.77127000  1.0 0.0900280988
N  N5  1  0.11567000  0.77127000  0.79407000  1.0 0.0900280988
N  N6  1  0.77127000  0.79407000  0.11567000  1.0 0.0900280988
N  N7  1  0.79407000  0.77127000  0.11567000  1.0 0.0900280988
N  N8  1  0.77127000  0.11567000  0.79407000  1.0 0.0900280988
N  N9  1  0.11567000  0.79407000  0.77127000  1.0 0.0900280988
N  N10  1  0.20593000  0.88433000  0.22873000  1.0 0.0900280988
N  N11  1  0.88433000  0.22873000  0.20593000  1.0 0.0900280988
N  N12  1  0.22873000  0.20593000  0.88433000  1.0 0.0900280988
N  N13  1  0.17866000  0.19936000  0.03136000  1.0 -0.1543467895
N  N14  1  0.19936000  0.03136000  0.17866000  1.0 -0.1543467895
N  N15  1  0.03136000  0.17866000  0.19936000  1.0 -0.1543467895
N  N16  1  0.82134000  0.96864000  0.80064000  1.0 -0.1543467895
N  N17  1  0.96864000  0.80064000  0.82134000  1.0 -0.1543467895
N  N18  1  0.80064000  0.82134000  0.96864000  1.0 -0.1543467895
N  N19  1  0.82134000  0.80064000  0.96864000  1.0 -0.1543467895
N  N20  1  0.80064000  0.96864000  0.82134000  1.0 -0.1543467895
N  N21  1  0.96864000  0.82134000  0.80064000  1.0 -0.1543467895
N  N22  1  0.17866000  0.03136000  0.19936000  1.0 -0.1543467895
N  N23  1  0.03136000  0.19936000  0.17866000  1.0 -0.1543467895
N  N24  1  0.19936000  0.17866000  0.03136000  1.0 -0.1543467895
N  N25  1  0.12167000  0.12166000  0.96028000  1.0 -0.1174938026
N  N26  1  0.12166000  0.96028000  0.12166000  1.0 -0.1174938026
N  N27  1  0.96028000  0.12166000  0.12166000  1.0 -0.1174938026
N  N28  1  0.87833000  0.03972000  0.87833000  1.0 -0.1174938026
N  N29  1  0.03972000  0.87833000  0.87833000  1.0 -0.1174938026
N  N30  1  0.87833000  0.87833000  0.03972000  1.0 -0.1174938026
N  N31  1  0.21890000  0.24690000  0.53630000  1.0 0.0900280988
N  N32  1  0.24690000  0.53630000  0.21890000  1.0 0.0900280988
N  N33  1  0.53630000  0.21890000  0.24690000  1.0 0.0900280988
N  N34  1  0.78110000  0.46370000  0.75310000  1.0 0.0900280988
N  N35  1  0.46370000  0.75310000  0.78110000  1.0 0.0900280988
N  N36  1  0.75310000  0.78110000  0.46370000  1.0 0.0900280988
N  N37  1  0.78110000  0.75310000  0.46370000  1.0 0.0900280988
N  N38  1  0.75310000  0.46370000  0.78110000  1.0 0.0900280988
N  N39  1  0.46370000  0.78110000  0.75310000  1.0 0.0900280988
N  N40  1  0.21890000  0.53630000  0.24690000  1.0 0.0900280988
N  N41  1  0.53630000  0.24690000  0.21890000  1.0 0.0900280988
N  N42  1  0.24690000  0.21890000  0.53630000  1.0 0.0900280988
N  N43  1  0.11500000  0.16520000  0.40150000  1.0 -0.1089403201
N  N44  1  0.16520000  0.40150000  0.11500000  1.0 -0.1089403201
N  N45  1  0.40150000  0.11500000  0.16520000  1.0 -0.1089403201
N  N46  1  0.88500000  0.59850000  0.83480000  1.0 -0.1089403201
N  N47  1  0.59850000  0.83480000  0.88500000  1.0 -0.1089403201
N  N48  1  0.83480000  0.88500000  0.59850000  1.0 -0.1089403201
N  N49  1  0.88500000  0.83480000  0.59850000  1.0 -0.1089403201
N  N50  1  0.83480000  0.59850000  0.88500000  1.0 -0.1089403201
N  N51  1  0.59850000  0.88500000  0.83480000  1.0 -0.1089403201
N  N52  1  0.11500000  0.40150000  0.16520000  1.0 -0.1089403201
N  N53  1  0.40150000  0.16520000  0.11500000  1.0 -0.1089403201
N  N54  1  0.16520000  0.11500000  0.40150000  1.0 -0.1089403201
N  N55  1  0.21110000  0.21110000  0.37485000  1.0 -0.2011654469
N  N56  1  0.21110000  0.37485000  0.21110000  1.0 -0.2011654469
N  N57  1  0.37485000  0.21110000  0.21110000  1.0 -0.2011654469
N  N58  1  0.78890000  0.62515000  0.78890000  1.0 -0.2011654469
N  N59  1  0.62515000  0.78890000  0.78890000  1.0 -0.2011654469
N  N60  1  0.78890000  0.78890000  0.62515000  1.0 -0.2011654469
