# DDEC6 charges by PACMAN v1.1 (https://github.com/mtap-research/PACMAN-charge/)
data_XIHRIQ_FSR_pacman
_symmetry_space_group_name_H-M   'P 1'
_cell_length_a   10.72500000
_cell_length_b   13.33100000
_cell_length_c   15.26140000
_cell_angle_alpha   114.35900000
_cell_angle_beta   86.00400000
_cell_angle_gamma   105.99300000
_symmetry_Int_Tables_number   1
_chemical_formula_structural   CoH24C36(NO)4
_chemical_formula_sum   'Co2 H48 C72 N8 O8'
_cell_volume   1908.41118083
_cell_formula_units_Z   2
loop_
 _symmetry_equiv_pos_site_id
 _symmetry_equiv_pos_as_xyz
  1  'x, y, z'
loop_
 _atom_site_type_symbol
 _atom_site_label
 _atom_site_symmetry_multiplicity
 _atom_site_fract_x
 _atom_site_fract_y
 _atom_site_fract_z
 _atom_site_occupancy
 _atom_site_charge
Co  Co1  1  0.12862000  0.98660000  0.58857000  1.0 0.8306920094
Co  Co2  1  0.87138000  0.01340000  0.41143000  1.0 0.8306920094
H  H1  1  0.21170000  0.24790000  0.69780000  1.0 0.110084392
H  H2  1  0.78830000  0.75210000  0.30220000  1.0 0.110084392
H  H3  1  0.14150000  0.40020000  0.80200000  1.0 0.1287158561
H  H4  1  0.85850000  0.59980000  0.19800000  1.0 0.1287158561
H  H5  1  0.80210000  0.18390000  0.80180000  1.0 0.1287158561
H  H6  1  0.19790000  0.81610000  0.19820000  1.0 0.1287158561
H  H7  1  0.87790000  0.03360000  0.69600000  1.0 0.110084392
H  H8  1  0.12210000  0.96640000  0.30400000  1.0 0.110084392
H  H9  1  0.97040000  0.48230000  0.90330000  1.0 0.091655956
H  H10  1  0.02960000  0.51770000  0.09670000  1.0 0.091655956
H  H11  1  0.84940000  0.60360000  0.92580000  1.0 0.110084392
H  H12  1  0.15060000  0.39640000  0.07420000  1.0 0.110084392
H  H13  1  0.75450000  0.74930000  0.03130000  1.0 0.1193465628
H  H14  1  0.24550000  0.25070000  0.96870000  1.0 0.1193465628
H  H15  1  0.61350000  0.71620000  0.14130000  1.0 0.1193465628
H  H16  1  0.38650000  0.28380000  0.85870000  1.0 0.1193465628
H  H17  1  0.43650000  0.41230000  0.22300000  1.0 0.1193465628
H  H18  1  0.56350000  0.58770000  0.77700000  1.0 0.1193465628
H  H19  1  0.51280000  0.26450000  0.11100000  1.0 0.1193465628
H  H20  1  0.48720000  0.73550000  0.88900000  1.0 0.1193465628
H  H21  1  0.65810000  0.29600000  0.00460000  1.0 0.110084392
H  H22  1  0.34190000  0.70400000  0.99540000  1.0 0.110084392
H  H23  1  0.30730000  0.52970000  0.23110000  1.0 0.091655956
H  H24  1  0.69270000  0.47030000  0.76890000  1.0 0.091655956
H  H25  1  0.46050000  0.83100000  0.35370000  1.0 0.1470501138
H  H26  1  0.53950000  0.16900000  0.64630000  1.0 0.1470501138
H  H27  1  0.37370000  0.96140000  0.47550000  1.0 0.110084392
H  H28  1  0.62630000  0.03860000  0.52450000  1.0 0.110084392
H  H29  1  0.06200000  0.72310000  0.46530000  1.0 0.110084392
H  H30  1  0.93800000  0.27690000  0.53470000  1.0 0.110084392
H  H31  1  0.14070000  0.58650000  0.34750000  1.0 0.1287158561
H  H32  1  0.85930000  0.41350000  0.65250000  1.0 0.1287158561
H  H33  1  0.50960000  0.07650000  0.78160000  1.0 0.1193465628
H  H34  1  0.49040000  0.92350000  0.21840000  1.0 0.1193465628
H  H35  1  0.61880000  0.07670000  0.90600000  1.0 0.110084392
H  H36  1  0.38120000  0.92330000  0.09400000  1.0 0.110084392
H  H37  1  0.28650000  0.91810000  0.98220000  1.0 0.110084392
H  H38  1  0.71350000  0.08190000  0.01780000  1.0 0.110084392
H  H39  1  0.17810000  0.91970000  0.85410000  1.0 0.1287158561
H  H40  1  0.82190000  0.08030000  0.14590000  1.0 0.1287158561
H  H41  1  0.44780000  0.60400000  0.43330000  1.0 0.1011810166
H  H42  1  0.55220000  0.39600000  0.56670000  1.0 0.1011810166
H  H43  1  0.60040000  0.76500000  0.44120000  1.0 0.1193465628
H  H44  1  0.39960000  0.23500000  0.55880000  1.0 0.1193465628
H  H45  1  0.84470000  0.70600000  0.58550000  1.0 0.1287158561
H  H46  1  0.15530000  0.29400000  0.41450000  1.0 0.1287158561
H  H47  1  0.68940000  0.54270000  0.57810000  1.0 0.110084392
H  H48  1  0.31060000  0.45730000  0.42190000  1.0 0.110084392
C  C1  1  0.12780000  0.23440000  0.71900000  1.0 0.091655956
C  C2  1  0.87220000  0.76560000  0.28100000  1.0 0.091655956
C  C3  1  0.08620000  0.32660000  0.78160000  1.0 -0.2000141131
C  C4  1  0.91380000  0.67340000  0.21840000  1.0 -0.2000141131
C  C5  1  0.96210000  0.30930000  0.81380000  1.0 0.110084392
C  C6  1  0.03790000  0.69070000  0.18620000  1.0 0.110084392
C  C7  1  0.88610000  0.19870000  0.78110000  1.0 -0.1792583254
C  C8  1  0.11390000  0.80130000  0.21890000  1.0 -0.1792583254
C  C9  1  0.93190000  0.10790000  0.71760000  1.0 0.091655956
C  C10  1  0.06810000  0.89210000  0.28240000  1.0 0.091655956
C  C11  1  0.91570000  0.40840000  0.88190000  1.0 0.0421549244
C  C12  1  0.08430000  0.59160000  0.11810000  1.0 0.0421549244
C  C13  1  0.75500000  0.48330000  0.97360000  1.0 0.1470501138
C  C14  1  0.24500000  0.51670000  0.02640000  1.0 0.1470501138
C  C15  1  0.79000000  0.58960000  0.96950000  1.0 -0.217898755
C  C16  1  0.21000000  0.41040000  0.03050000  1.0 -0.217898755
C  C17  1  0.73280000  0.67830000  0.03420000  1.0 -0.0803682792
C  C18  1  0.26720000  0.32170000  0.96580000  1.0 -0.0803682792
C  C19  1  0.64780000  0.65800000  0.09890000  1.0 -0.1354265051
C  C20  1  0.35220000  0.34200000  0.90110000  1.0 -0.1354265051
C  C21  1  0.61110000  0.55210000  0.10300000  1.0 0.007659999
C  C22  1  0.38890000  0.44790000  0.89700000  1.0 0.007659999
C  C23  1  0.52180000  0.52800000  0.17070000  1.0 0.1470501138
C  C24  1  0.47820000  0.47200000  0.82930000  1.0 0.1470501138
C  C25  1  0.49040000  0.42450000  0.17580000  1.0 -0.1910810458
C  C26  1  0.50960000  0.57550000  0.82420000  1.0 -0.1910810458
C  C27  1  0.53930000  0.33670000  0.11010000  1.0 -0.0741982149
C  C28  1  0.46070000  0.66330000  0.88990000  1.0 -0.0741982149
C  C29  1  0.62390000  0.35490000  0.04580000  1.0 -0.1495330917
C  C30  1  0.37610000  0.64510000  0.95420000  1.0 -0.1495330917
C  C31  1  0.66230000  0.46250000  0.03950000  1.0 0.0046611804
C  C32  1  0.33770000  0.53750000  0.96050000  1.0 0.0046611804
C  C33  1  0.36190000  0.60320000  0.26170000  1.0 0.0588339803
C  C34  1  0.63810000  0.39680000  0.73830000  1.0 0.0588339803
C  C35  1  0.31020000  0.69270000  0.33760000  1.0 0.110084392
C  C36  1  0.68980000  0.30730000  0.66240000  1.0 0.110084392
C  C37  1  0.37970000  0.80700000  0.37590000  1.0 -0.1910810458
C  C38  1  0.62030000  0.19300000  0.62410000  1.0 -0.1792583254
C  C39  1  0.32560000  0.88510000  0.44830000  1.0 0.1011810166
C  C40  1  0.67440000  0.11490000  0.55170000  1.0 0.1011810166
C  C41  1  0.14320000  0.74510000  0.44270000  1.0 0.0788657753
C  C42  1  0.85680000  0.25490000  0.55730000  1.0 0.0788657753
C  C43  1  0.18990000  0.66250000  0.37200000  1.0 -0.2000141131
C  C44  1  0.81010000  0.33750000  0.62800000  1.0 -0.2000141131
C  C45  1  0.33440000  0.00310000  0.80530000  1.0 -0.0319172634
C  C46  1  0.66560000  0.99690000  0.19470000  1.0 -0.0319172634
C  C47  1  0.46220000  0.04530000  0.82210000  1.0 -0.1019569278
C  C48  1  0.53780000  0.95470000  0.17790000  1.0 -0.1019569278
C  C49  1  0.52930000  0.04520000  0.89760000  1.0 -0.1669995027
C  C50  1  0.47070000  0.95480000  0.10240000  1.0 -0.1669995027
C  C51  1  0.46560000  0.99960000  0.95910000  1.0 0.0728371007
C  C52  1  0.53440000  0.00040000  0.04090000  1.0 0.0728371007
C  C53  1  0.33300000  0.95140000  0.94270000  1.0 -0.1626383054
C  C54  1  0.66700000  0.04860000  0.05730000  1.0 -0.1626383054
C  C55  1  0.26720000  0.95290000  0.86500000  1.0 -0.1019569278
C  C56  1  0.73280000  0.04710000  0.13500000  1.0 -0.1019569278
C  C57  1  0.54960000  0.55140000  0.50240000  1.0 0.0788657753
C  C58  1  0.45040000  0.44860000  0.49760000  1.0 0.0788657753
C  C59  1  0.52810000  0.62290000  0.46400000  1.0 -0.1495330917
C  C60  1  0.47190000  0.37710000  0.53600000  1.0 -0.1495330917
C  C61  1  0.61940000  0.72010000  0.46890000  1.0 -0.1019569278
C  C62  1  0.38060000  0.27990000  0.53110000  1.0 -0.1019569278
C  C63  1  0.73820000  0.75150000  0.51440000  1.0 -0.0319172634
C  C64  1  0.26180000  0.24850000  0.48560000  1.0 -0.0319172634
C  C65  1  0.76420000  0.68550000  0.55440000  1.0 -0.1019569278
C  C66  1  0.23580000  0.31450000  0.44560000  1.0 -0.1019569278
C  C67  1  0.67040000  0.58640000  0.54930000  1.0 -0.1626383054
C  C68  1  0.32960000  0.41360000  0.45070000  1.0 -0.1626383054
C  C69  1  0.26460000  0.00030000  0.72340000  1.0 0.5243291123
C  C70  1  0.73540000  0.99970000  0.27660000  1.0 0.5243291123
C  C71  1  0.83930000  0.85700000  0.51780000  1.0 0.5676583213
C  C72  1  0.16070000  0.14300000  0.48220000  1.0 0.5676583213
N  N1  1  0.05360000  0.12640000  0.68710000  1.0 -0.2426805037
N  N2  1  0.94640000  0.87360000  0.31290000  1.0 -0.2426805037
N  N3  1  0.79940000  0.39040000  0.91040000  1.0 -0.2643540042
N  N4  1  0.20060000  0.60960000  0.08960000  1.0 -0.2643540042
N  N5  1  0.47810000  0.62450000  0.23780000  1.0 -0.2502581018
N  N6  1  0.52190000  0.37550000  0.76220000  1.0 -0.2502581018
N  N7  1  0.20880000  0.85630000  0.48080000  1.0 -0.2286613049
N  N8  1  0.79120000  0.14370000  0.51920000  1.0 -0.2286613049
O  O1  1  0.31540000  0.05390000  0.67680000  1.0 -0.5095344918
O  O2  1  0.68460000  0.94610000  0.32320000  1.0 -0.5095344918
O  O3  1  0.14650000  0.94040000  0.70410000  1.0 -0.5182363229
O  O4  1  0.85350000  0.05960000  0.29590000  1.0 -0.5182363229
O  O5  1  0.95140000  0.87260000  0.54910000  1.0 -0.5535615223
O  O6  1  0.04860000  0.12740000  0.45090000  1.0 -0.5535615223
O  O7  1  0.80490000  0.92060000  0.48820000  1.0 -0.5535615223
O  O8  1  0.19510000  0.07940000  0.51180000  1.0 -0.5535615223
