# DDEC6 charges by PACMAN v1.1 (https://github.com/mtap-research/PACMAN-charge/)
data_XIJPAI_ASR_pacman
_symmetry_space_group_name_H-M   'P 1'
_cell_length_a   19.72050000
_cell_length_b   19.72050000
_cell_length_c   22.98160000
_cell_angle_alpha   90.00000000
_cell_angle_beta   90.00000000
_cell_angle_gamma   120.00000000
_symmetry_Int_Tables_number   1
_chemical_formula_structural   Cd8C94S17
_chemical_formula_sum   'Cd24 C282 S51'
_cell_volume   7740.10294728
_cell_formula_units_Z   3
loop_
 _symmetry_equiv_pos_site_id
 _symmetry_equiv_pos_as_xyz
  1  'x, y, z'
loop_
 _atom_site_type_symbol
 _atom_site_label
 _atom_site_symmetry_multiplicity
 _atom_site_fract_x
 _atom_site_fract_y
 _atom_site_fract_z
 _atom_site_occupancy
 _atom_site_charge
Cd  Cd1  1  0.54984000  0.86636000  0.10229000  1.0 0.5094491849
Cd  Cd2  1  0.68348000  0.54984000  0.43562000  1.0 0.5094491849
Cd  Cd3  1  0.13364000  0.68348000  0.76896000  1.0 0.5094491849
Cd  Cd4  1  0.45016000  0.13364000  0.10229000  1.0 0.5094491849
Cd  Cd5  1  0.31652000  0.45016000  0.43562000  1.0 0.5094491849
Cd  Cd6  1  0.86636000  0.31652000  0.76896000  1.0 0.5094491849
Cd  Cd7  1  0.13364000  0.45016000  0.56438000  1.0 0.5094491849
Cd  Cd8  1  0.68348000  0.13364000  0.89771000  1.0 0.5094491849
Cd  Cd9  1  0.54984000  0.68348000  0.23104000  1.0 0.5094491849
Cd  Cd10  1  0.86636000  0.54984000  0.56438000  1.0 0.5094491849
Cd  Cd11  1  0.31652000  0.86636000  0.89771000  1.0 0.5094491849
Cd  Cd12  1  0.45016000  0.31652000  0.23104000  1.0 0.5094491849
Cd  Cd13  1  0.53286000  0.91442000  0.93812000  1.0 0.5420454254
Cd  Cd14  1  0.61844000  0.53286000  0.27145000  1.0 0.5420454254
Cd  Cd15  1  0.08558000  0.61844000  0.60479000  1.0 0.5420454254
Cd  Cd16  1  0.46714000  0.08558000  0.93812000  1.0 0.5420454254
Cd  Cd17  1  0.38156000  0.46714000  0.27145000  1.0 0.5420454254
Cd  Cd18  1  0.91442000  0.38156000  0.60479000  1.0 0.5420454254
Cd  Cd19  1  0.08558000  0.46714000  0.72855000  1.0 0.5420454254
Cd  Cd20  1  0.61844000  0.08558000  0.06188000  1.0 0.5420454254
Cd  Cd21  1  0.53286000  0.61844000  0.39521000  1.0 0.5420454254
Cd  Cd22  1  0.91442000  0.53286000  0.72855000  1.0 0.5420454254
Cd  Cd23  1  0.38156000  0.91442000  0.06188000  1.0 0.5420454254
Cd  Cd24  1  0.46714000  0.38156000  0.39521000  1.0 0.5420454254
C  C1  1  0.55830000  0.76080000  0.98420000  1.0 0.0710107812
C  C2  1  0.79750000  0.55830000  0.31753000  1.0 0.0710107812
C  C3  1  0.23920000  0.79750000  0.65087000  1.0 0.0710107812
C  C4  1  0.44170000  0.23920000  0.98420000  1.0 0.0710107812
C  C5  1  0.20250000  0.44170000  0.31753000  1.0 0.0710107812
C  C6  1  0.76080000  0.20250000  0.65087000  1.0 0.0710107812
C  C7  1  0.23920000  0.44170000  0.68247000  1.0 0.0710107812
C  C8  1  0.79750000  0.23920000  0.01580000  1.0 0.0710107812
C  C9  1  0.55830000  0.79750000  0.34913000  1.0 0.0710107812
C  C10  1  0.76080000  0.55830000  0.68247000  1.0 0.0710107812
C  C11  1  0.20250000  0.76080000  0.01580000  1.0 0.0710107812
C  C12  1  0.44170000  0.20250000  0.34913000  1.0 0.0710107812
C  C13  1  0.52070000  0.68010000  0.97700000  1.0 -0.0117330664
C  C14  1  0.84060000  0.52070000  0.31033000  1.0 -0.0117330664
C  C15  1  0.31990000  0.84060000  0.64367000  1.0 -0.0117330664
C  C16  1  0.47930000  0.31990000  0.97700000  1.0 -0.0117330664
C  C17  1  0.15940000  0.47930000  0.31033000  1.0 -0.0117330664
C  C18  1  0.68010000  0.15940000  0.64367000  1.0 -0.0117330664
C  C19  1  0.31990000  0.47930000  0.68967000  1.0 -0.0117330664
C  C20  1  0.84060000  0.31990000  0.02300000  1.0 -0.0117330664
C  C21  1  0.52070000  0.84060000  0.35633000  1.0 -0.0117330664
C  C22  1  0.68010000  0.52070000  0.68967000  1.0 -0.0117330664
C  C23  1  0.15940000  0.68010000  0.02300000  1.0 -0.0117330664
C  C24  1  0.47930000  0.15940000  0.35633000  1.0 -0.0117330664
C  C25  1  0.56090000  0.64560000  0.95300000  1.0 0.030478047
C  C26  1  0.91530000  0.56090000  0.28633000  1.0 0.030478047
C  C27  1  0.35440000  0.91530000  0.61967000  1.0 0.030478047
C  C28  1  0.43910000  0.35440000  0.95300000  1.0 0.030478047
C  C29  1  0.08470000  0.43910000  0.28633000  1.0 0.030478047
C  C30  1  0.64560000  0.08470000  0.61967000  1.0 0.030478047
C  C31  1  0.35440000  0.43910000  0.71367000  1.0 0.030478047
C  C32  1  0.91530000  0.35440000  0.04700000  1.0 0.030478047
C  C33  1  0.56090000  0.91530000  0.38033000  1.0 0.030478047
C  C34  1  0.64560000  0.56090000  0.71367000  1.0 0.030478047
C  C35  1  0.08470000  0.64560000  0.04700000  1.0 0.030478047
C  C36  1  0.43910000  0.08470000  0.38033000  1.0 0.030478047
C  C37  1  0.63860000  0.69180000  0.93620000  1.0 0.0394179893
C  C38  1  0.94680000  0.63860000  0.26953000  1.0 0.0394179893
C  C39  1  0.30820000  0.94680000  0.60287000  1.0 0.0394179893
C  C40  1  0.36140000  0.30820000  0.93620000  1.0 0.0394179893
C  C41  1  0.05320000  0.36140000  0.26953000  1.0 0.0394179893
C  C42  1  0.69180000  0.05320000  0.60287000  1.0 0.0394179893
C  C43  1  0.30820000  0.36140000  0.73047000  1.0 0.0394179893
C  C44  1  0.94680000  0.30820000  0.06380000  1.0 0.0394179893
C  C45  1  0.63860000  0.94680000  0.39713000  1.0 0.0394179893
C  C46  1  0.69180000  0.63860000  0.73047000  1.0 0.0394179893
C  C47  1  0.05320000  0.69180000  0.06380000  1.0 0.0394179893
C  C48  1  0.36140000  0.05320000  0.39713000  1.0 0.0394179893
C  C49  1  0.67610000  0.77260000  0.94330000  1.0 0.0208472597
C  C50  1  0.90350000  0.67610000  0.27663000  1.0 0.0208472597
C  C51  1  0.22740000  0.90350000  0.60997000  1.0 0.0208472597
C  C52  1  0.32390000  0.22740000  0.94330000  1.0 0.0208472597
C  C53  1  0.09650000  0.32390000  0.27663000  1.0 0.0208472597
C  C54  1  0.77260000  0.09650000  0.60997000  1.0 0.0208472597
C  C55  1  0.22740000  0.32390000  0.72337000  1.0 0.0208472597
C  C56  1  0.90350000  0.22740000  0.05670000  1.0 0.0208472597
C  C57  1  0.67610000  0.90350000  0.39003000  1.0 0.0208472597
C  C58  1  0.77260000  0.67610000  0.72337000  1.0 0.0208472597
C  C59  1  0.09650000  0.77260000  0.05670000  1.0 0.0208472597
C  C60  1  0.32390000  0.09650000  0.39003000  1.0 0.0208472597
C  C61  1  0.63600000  0.80710000  0.96730000  1.0 -0.0726856381
C  C62  1  0.82890000  0.63600000  0.30063000  1.0 -0.0726856381
C  C63  1  0.19290000  0.82890000  0.63397000  1.0 -0.0726856381
C  C64  1  0.36400000  0.19290000  0.96730000  1.0 -0.0726856381
C  C65  1  0.17110000  0.36400000  0.30063000  1.0 -0.0726856381
C  C66  1  0.80710000  0.17110000  0.63397000  1.0 -0.0726856381
C  C67  1  0.19290000  0.36400000  0.69937000  1.0 -0.0726856381
C  C68  1  0.82890000  0.19290000  0.03270000  1.0 -0.0726856381
C  C69  1  0.63600000  0.82890000  0.36603000  1.0 -0.0726856381
C  C70  1  0.80710000  0.63600000  0.69937000  1.0 -0.0726856381
C  C71  1  0.17110000  0.80710000  0.03270000  1.0 -0.0726856381
C  C72  1  0.36400000  0.17110000  0.36603000  1.0 -0.0726856381
C  C73  1  0.70130000  0.85065000  0.16667000  1.0 0.0394179893
C  C74  1  0.85065000  0.70130000  0.50000000  1.0 0.0394179893
C  C75  1  0.14935000  0.85065000  0.83333000  1.0 0.0394179893
C  C76  1  0.29870000  0.14935000  0.16667000  1.0 0.0394179893
C  C77  1  0.14935000  0.29870000  0.50000000  1.0 0.0394179893
C  C78  1  0.85065000  0.14935000  0.83333000  1.0 0.0394179893
C  C79  1  0.73860000  0.87660000  0.21960000  1.0 -0.0726856381
C  C80  1  0.86200000  0.73860000  0.55293000  1.0 -0.0726856381
C  C81  1  0.12340000  0.86200000  0.88627000  1.0 -0.0726856381
C  C82  1  0.26140000  0.12340000  0.21960000  1.0 -0.0726856381
C  C83  1  0.13800000  0.26140000  0.55293000  1.0 -0.0726856381
C  C84  1  0.87660000  0.13800000  0.88627000  1.0 -0.0726856381
C  C85  1  0.12340000  0.26140000  0.44707000  1.0 -0.0726856381
C  C86  1  0.86200000  0.12340000  0.78040000  1.0 -0.0726856381
C  C87  1  0.73860000  0.86200000  0.11373000  1.0 -0.0726856381
C  C88  1  0.87660000  0.73860000  0.44707000  1.0 -0.0726856381
C  C89  1  0.13800000  0.87660000  0.78040000  1.0 -0.0726856381
C  C90  1  0.26140000  0.13800000  0.11373000  1.0 -0.0726856381
C  C91  1  0.80830000  0.91060000  0.23100000  1.0 -0.0317694907
C  C92  1  0.89770000  0.80830000  0.56433000  1.0 -0.0317694907
C  C93  1  0.08940000  0.89770000  0.89767000  1.0 -0.0317694907
C  C94  1  0.19170000  0.08940000  0.23100000  1.0 -0.0317694907
C  C95  1  0.10230000  0.19170000  0.56433000  1.0 -0.0317694907
C  C96  1  0.91060000  0.10230000  0.89767000  1.0 -0.0317694907
C  C97  1  0.08940000  0.19170000  0.43567000  1.0 -0.0317694907
C  C98  1  0.89770000  0.08940000  0.76900000  1.0 -0.0317694907
C  C99  1  0.80830000  0.89770000  0.10233000  1.0 -0.0317694907
C  C100  1  0.91060000  0.80830000  0.43567000  1.0 -0.0317694907
C  C101  1  0.10230000  0.91060000  0.76900000  1.0 -0.0317694907
C  C102  1  0.19170000  0.10230000  0.10233000  1.0 -0.0317694907
C  C103  1  0.85090000  0.93260000  0.18980000  1.0 0.0208472597
C  C104  1  0.91830000  0.85090000  0.52313000  1.0 0.0208472597
C  C105  1  0.06740000  0.91830000  0.85647000  1.0 0.0208472597
C  C106  1  0.14910000  0.06740000  0.18980000  1.0 0.0208472597
C  C107  1  0.08170000  0.14910000  0.52313000  1.0 0.0208472597
C  C108  1  0.93260000  0.08170000  0.85647000  1.0 0.0208472597
C  C109  1  0.06740000  0.14910000  0.47687000  1.0 0.0208472597
C  C110  1  0.91830000  0.06740000  0.81020000  1.0 0.0208472597
C  C111  1  0.85090000  0.91830000  0.14353000  1.0 0.0208472597
C  C112  1  0.93260000  0.85090000  0.47687000  1.0 0.0208472597
C  C113  1  0.08170000  0.93260000  0.81020000  1.0 0.0208472597
C  C114  1  0.14910000  0.08170000  0.14353000  1.0 0.0208472597
C  C115  1  0.71860000  0.03400000  0.15200000  1.0 0.0503246048
C  C116  1  0.68460000  0.71860000  0.48533000  1.0 0.0503246048
C  C117  1  0.96600000  0.68460000  0.81867000  1.0 0.0503246048
C  C118  1  0.28140000  0.96600000  0.15200000  1.0 0.0503246048
C  C119  1  0.31540000  0.28140000  0.48533000  1.0 0.0503246048
C  C120  1  0.03400000  0.31540000  0.81867000  1.0 0.0503246048
C  C121  1  0.96600000  0.28140000  0.51467000  1.0 0.0503246048
C  C122  1  0.68460000  0.96600000  0.84800000  1.0 0.0503246048
C  C123  1  0.71860000  0.68460000  0.18133000  1.0 0.0503246048
C  C124  1  0.03400000  0.71860000  0.51467000  1.0 0.0503246048
C  C125  1  0.31540000  0.03400000  0.84800000  1.0 0.0503246048
C  C126  1  0.28140000  0.31540000  0.18133000  1.0 0.0503246048
C  C127  1  0.79970000  0.07080000  0.15530000  1.0 -0.0030765423
C  C128  1  0.72890000  0.79970000  0.48863000  1.0 -0.0030765423
C  C129  1  0.92920000  0.72890000  0.82197000  1.0 -0.0030765423
C  C130  1  0.20030000  0.92920000  0.15530000  1.0 -0.0030765423
C  C131  1  0.27110000  0.20030000  0.48863000  1.0 -0.0117330664
C  C132  1  0.07080000  0.27110000  0.82197000  1.0 -0.0030765423
C  C133  1  0.92920000  0.20030000  0.51137000  1.0 -0.0030765423
C  C134  1  0.72890000  0.92920000  0.84470000  1.0 -0.0030765423
C  C135  1  0.79970000  0.72890000  0.17803000  1.0 -0.0030765423
C  C136  1  0.07080000  0.79970000  0.51137000  1.0 -0.0030765423
C  C137  1  0.27110000  0.07080000  0.84470000  1.0 -0.0030765423
C  C138  1  0.20030000  0.27110000  0.17803000  1.0 -0.0030765423
C  C139  1  0.83750000  0.10420000  0.20740000  1.0 0.0503246048
C  C140  1  0.73330000  0.83750000  0.54073000  1.0 0.0503246048
C  C141  1  0.89580000  0.73330000  0.87407000  1.0 0.0503246048
C  C142  1  0.16250000  0.89580000  0.20740000  1.0 0.0503246048
C  C143  1  0.26670000  0.16250000  0.54073000  1.0 0.0503246048
C  C144  1  0.10420000  0.26670000  0.87407000  1.0 0.0503246048
C  C145  1  0.89580000  0.16250000  0.45927000  1.0 0.0503246048
C  C146  1  0.73330000  0.89580000  0.79260000  1.0 0.0503246048
C  C147  1  0.83750000  0.73330000  0.12593000  1.0 0.0503246048
C  C148  1  0.10420000  0.83750000  0.45927000  1.0 0.0503246048
C  C149  1  0.26670000  0.10420000  0.79260000  1.0 0.0503246048
C  C150  1  0.16250000  0.26670000  0.12593000  1.0 0.0503246048
C  C151  1  0.79420000  0.10070000  0.25620000  1.0 0.0082255426
C  C152  1  0.69350000  0.79420000  0.58953000  1.0 0.0082255426
C  C153  1  0.89930000  0.69350000  0.92287000  1.0 0.0082255426
C  C154  1  0.20580000  0.89930000  0.25620000  1.0 0.0082255426
C  C155  1  0.30650000  0.20580000  0.58953000  1.0 0.0082255426
C  C156  1  0.10070000  0.30650000  0.92287000  1.0 0.0082255426
C  C157  1  0.89930000  0.20580000  0.41047000  1.0 0.0082255426
C  C158  1  0.69350000  0.89930000  0.74380000  1.0 0.0082255426
C  C159  1  0.79420000  0.69350000  0.07713000  1.0 0.0082255426
C  C160  1  0.10070000  0.79420000  0.41047000  1.0 0.0082255426
C  C161  1  0.30650000  0.10070000  0.74380000  1.0 0.0082255426
C  C162  1  0.20580000  0.30650000  0.07713000  1.0 0.0082255426
C  C163  1  0.71300000  0.06390000  0.25280000  1.0 0.030478047
C  C164  1  0.64910000  0.71300000  0.58613000  1.0 0.030478047
C  C165  1  0.93610000  0.64910000  0.91947000  1.0 0.030478047
C  C166  1  0.28700000  0.93610000  0.25280000  1.0 0.030478047
C  C167  1  0.35090000  0.28700000  0.58613000  1.0 0.030478047
C  C168  1  0.06390000  0.35090000  0.91947000  1.0 0.030478047
C  C169  1  0.93610000  0.28700000  0.41387000  1.0 0.030478047
C  C170  1  0.64910000  0.93610000  0.74720000  1.0 0.030478047
C  C171  1  0.71300000  0.64910000  0.08053000  1.0 0.030478047
C  C172  1  0.06390000  0.71300000  0.41387000  1.0 0.030478047
C  C173  1  0.35090000  0.06390000  0.74720000  1.0 0.030478047
C  C174  1  0.28700000  0.35090000  0.08053000  1.0 0.030478047
C  C175  1  0.67520000  0.03060000  0.20070000  1.0 -0.0890833597
C  C176  1  0.64460000  0.67520000  0.53403000  1.0 -0.0890833597
C  C177  1  0.96940000  0.64460000  0.86737000  1.0 -0.0890833597
C  C178  1  0.32480000  0.96940000  0.20070000  1.0 -0.0890833597
C  C179  1  0.35540000  0.32480000  0.53403000  1.0 -0.0953253001
C  C180  1  0.03060000  0.35540000  0.86737000  1.0 -0.0890833597
C  C181  1  0.96940000  0.32480000  0.46597000  1.0 -0.0953253001
C  C182  1  0.64460000  0.96940000  0.79930000  1.0 -0.0890833597
C  C183  1  0.67520000  0.64460000  0.13263000  1.0 -0.0890833597
C  C184  1  0.03060000  0.67520000  0.46597000  1.0 -0.0953253001
C  C185  1  0.35540000  0.03060000  0.79930000  1.0 -0.0890833597
C  C186  1  0.32480000  0.35540000  0.13263000  1.0 -0.0890833597
C  C187  1  0.90960000  0.14310000  0.22330000  1.0 -0.0890833597
C  C188  1  0.76650000  0.90960000  0.55663000  1.0 -0.0890833597
C  C189  1  0.85690000  0.76650000  0.88997000  1.0 -0.0890833597
C  C190  1  0.09040000  0.85690000  0.22330000  1.0 -0.0848775968
C  C191  1  0.23350000  0.09040000  0.55663000  1.0 -0.0890833597
C  C192  1  0.14310000  0.23350000  0.88997000  1.0 -0.0890833597
C  C193  1  0.85690000  0.09040000  0.44337000  1.0 -0.0890833597
C  C194  1  0.76650000  0.85690000  0.77670000  1.0 -0.0890833597
C  C195  1  0.90960000  0.76650000  0.11003000  1.0 -0.0890833597
C  C196  1  0.14310000  0.90960000  0.44337000  1.0 -0.0890833597
C  C197  1  0.23350000  0.14310000  0.77670000  1.0 -0.0890833597
C  C198  1  0.09040000  0.23350000  0.11003000  1.0 -0.0890833597
C  C199  1  0.37110000  0.80320000  0.18330000  1.0 0.0957449558
C  C200  1  0.56790000  0.37110000  0.51663000  1.0 0.0957449558
C  C201  1  0.19680000  0.56790000  0.84997000  1.0 0.0957449558
C  C202  1  0.62890000  0.19680000  0.18330000  1.0 0.0957449558
C  C203  1  0.43210000  0.62890000  0.51663000  1.0 0.0957449558
C  C204  1  0.80320000  0.43210000  0.84997000  1.0 0.0957449558
C  C205  1  0.19680000  0.62890000  0.48337000  1.0 0.0957449558
C  C206  1  0.56790000  0.19680000  0.81670000  1.0 0.0946472719
C  C207  1  0.37110000  0.56790000  0.15003000  1.0 0.0957449558
C  C208  1  0.80320000  0.37110000  0.48337000  1.0 0.0957449558
C  C209  1  0.43210000  0.80320000  0.81670000  1.0 0.0957449558
C  C210  1  0.62890000  0.43210000  0.15003000  1.0 0.0957449558
C  C211  1  0.29220000  0.77780000  0.17480000  1.0 -0.0890833597
C  C212  1  0.51440000  0.29220000  0.50813000  1.0 -0.0890833597
C  C213  1  0.22220000  0.51440000  0.84147000  1.0 -0.0890833597
C  C214  1  0.70780000  0.22220000  0.17480000  1.0 -0.0890833597
C  C215  1  0.48560000  0.70780000  0.50813000  1.0 -0.0890833597
C  C216  1  0.77780000  0.48560000  0.84147000  1.0 -0.0890833597
C  C217  1  0.22220000  0.70780000  0.49187000  1.0 -0.0890833597
C  C218  1  0.51440000  0.22220000  0.82520000  1.0 -0.0890833597
C  C219  1  0.29220000  0.51440000  0.15853000  1.0 -0.0890833597
C  C220  1  0.77780000  0.29220000  0.49187000  1.0 -0.0890833597
C  C221  1  0.48560000  0.77780000  0.82520000  1.0 -0.0890833597
C  C222  1  0.70780000  0.48560000  0.15853000  1.0 -0.0890833597
C  C223  1  0.23560000  0.71160000  0.20360000  1.0 0.0799231962
C  C224  1  0.52400000  0.23560000  0.53693000  1.0 0.0799231962
C  C225  1  0.28840000  0.52400000  0.87027000  1.0 0.0799231962
C  C226  1  0.76440000  0.28840000  0.20360000  1.0 0.0799231962
C  C227  1  0.47600000  0.76440000  0.53693000  1.0 0.0799231962
C  C228  1  0.71160000  0.47600000  0.87027000  1.0 0.0799231962
C  C229  1  0.28840000  0.76440000  0.46307000  1.0 0.0799231962
C  C230  1  0.52400000  0.28840000  0.79640000  1.0 0.0799231962
C  C231  1  0.23560000  0.52400000  0.12973000  1.0 0.0799231962
C  C232  1  0.71160000  0.23560000  0.46307000  1.0 0.0799231962
C  C233  1  0.47600000  0.71160000  0.79640000  1.0 0.0799231962
C  C234  1  0.76440000  0.47600000  0.12973000  1.0 0.0799231962
C  C235  1  0.25790000  0.67090000  0.24100000  1.0 0.0082255426
C  C236  1  0.58700000  0.25790000  0.57433000  1.0 0.0082255426
C  C237  1  0.32910000  0.58700000  0.90767000  1.0 0.0082255426
C  C238  1  0.74210000  0.32910000  0.24100000  1.0 0.0082255426
C  C239  1  0.41300000  0.74210000  0.57433000  1.0 0.0082255426
C  C240  1  0.67090000  0.41300000  0.90767000  1.0 0.0082255426
C  C241  1  0.32910000  0.74210000  0.42567000  1.0 0.0082255426
C  C242  1  0.58700000  0.32910000  0.75900000  1.0 0.0082255426
C  C243  1  0.25790000  0.58700000  0.09233000  1.0 0.0082255426
C  C244  1  0.67090000  0.25790000  0.42567000  1.0 0.0082255426
C  C245  1  0.41300000  0.67090000  0.75900000  1.0 0.0082255426
C  C246  1  0.74210000  0.41300000  0.09233000  1.0 0.0082255426
C  C247  1  0.33680000  0.69630000  0.24960000  1.0 -0.0030765423
C  C248  1  0.64050000  0.33680000  0.58293000  1.0 -0.0030765423
C  C249  1  0.30370000  0.64050000  0.91627000  1.0 -0.0030765423
C  C250  1  0.66320000  0.30370000  0.24960000  1.0 -0.0030765423
C  C251  1  0.35950000  0.66320000  0.58293000  1.0 -0.0030765423
C  C252  1  0.69630000  0.35950000  0.91627000  1.0 -0.0030765423
C  C253  1  0.30370000  0.66320000  0.41707000  1.0 -0.0030765423
C  C254  1  0.64050000  0.30370000  0.75040000  1.0 -0.0030765423
C  C255  1  0.33680000  0.64050000  0.08373000  1.0 -0.0030765423
C  C256  1  0.69630000  0.33680000  0.41707000  1.0 -0.0030765423
C  C257  1  0.35950000  0.69630000  0.75040000  1.0 -0.0030765423
C  C258  1  0.66320000  0.35950000  0.08373000  1.0 -0.0030765423
C  C259  1  0.39340000  0.76250000  0.22080000  1.0 -0.0492123942
C  C260  1  0.63090000  0.39340000  0.55413000  1.0 -0.0492123942
C  C261  1  0.23750000  0.63090000  0.88747000  1.0 -0.0492123942
C  C262  1  0.60660000  0.23750000  0.22080000  1.0 -0.0492123942
C  C263  1  0.36910000  0.60660000  0.55413000  1.0 -0.0492123942
C  C264  1  0.76250000  0.36910000  0.88747000  1.0 -0.0492123942
C  C265  1  0.23750000  0.60660000  0.44587000  1.0 -0.0492123942
C  C266  1  0.63090000  0.23750000  0.77920000  1.0 -0.0492123942
C  C267  1  0.39340000  0.63090000  0.11253000  1.0 -0.0492123942
C  C268  1  0.76250000  0.39340000  0.44587000  1.0 -0.0492123942
C  C269  1  0.36910000  0.76250000  0.77920000  1.0 -0.0492123942
C  C270  1  0.60660000  0.36910000  0.11253000  1.0 -0.0492123942
C  C271  1  0.14510000  0.68060000  0.19210000  1.0 0.030478047
C  C272  1  0.46450000  0.14510000  0.52543000  1.0 0.030478047
C  C273  1  0.31940000  0.46450000  0.85877000  1.0 0.030478047
C  C274  1  0.85490000  0.31940000  0.19210000  1.0 0.030478047
C  C275  1  0.53550000  0.85490000  0.52543000  1.0 0.030478047
C  C276  1  0.68060000  0.53550000  0.85877000  1.0 0.0208472597
C  C277  1  0.31940000  0.85490000  0.47457000  1.0 0.030478047
C  C278  1  0.46450000  0.31940000  0.80790000  1.0 0.0208472597
C  C279  1  0.14510000  0.46450000  0.14123000  1.0 0.030478047
C  C280  1  0.68060000  0.14510000  0.47457000  1.0 0.030478047
C  C281  1  0.53550000  0.68060000  0.80790000  1.0 0.030478047
C  C282  1  0.85490000  0.53550000  0.14123000  1.0 0.030478047
S  S1  1  0.49970000  0.79964000  0.00374000  1.0 -0.2984732909
S  S2  1  0.70006000  0.49970000  0.33707000  1.0 -0.2938244929
S  S3  1  0.20036000  0.70006000  0.67041000  1.0 -0.2938244929
S  S4  1  0.50030000  0.20036000  0.00374000  1.0 -0.2984732909
S  S5  1  0.29994000  0.50030000  0.33707000  1.0 -0.2984732909
S  S6  1  0.79964000  0.29994000  0.67041000  1.0 -0.2984732909
S  S7  1  0.20036000  0.50030000  0.66293000  1.0 -0.2984732909
S  S8  1  0.70006000  0.20036000  0.99626000  1.0 -0.2984732909
S  S9  1  0.49970000  0.70006000  0.32959000  1.0 -0.2984732909
S  S10  1  0.79964000  0.49970000  0.66293000  1.0 -0.2938244929
S  S11  1  0.29994000  0.79964000  0.99626000  1.0 -0.2984732909
S  S12  1  0.50030000  0.29994000  0.32959000  1.0 -0.2984732909
S  S13  1  0.67407000  0.99724000  0.08359000  1.0 -0.3135389998
S  S14  1  0.67683000  0.67407000  0.41692000  1.0 -0.3135389998
S  S15  1  0.00276000  0.67683000  0.75026000  1.0 -0.3135389998
S  S16  1  0.32593000  0.00276000  0.08359000  1.0 -0.3135389998
S  S17  1  0.32317000  0.32593000  0.41692000  1.0 -0.3135389998
S  S18  1  0.99724000  0.32317000  0.75026000  1.0 -0.3135389998
S  S19  1  0.00276000  0.32593000  0.58308000  1.0 -0.3135389998
S  S20  1  0.67683000  0.00276000  0.91641000  1.0 -0.3135389998
S  S21  1  0.67407000  0.67683000  0.24974000  1.0 -0.3135389998
S  S22  1  0.99724000  0.67407000  0.58308000  1.0 -0.3135389998
S  S23  1  0.32317000  0.99724000  0.91641000  1.0 -0.3135389998
S  S24  1  0.32593000  0.32317000  0.24974000  1.0 -0.3135389998
S  S25  1  0.44629000  0.89020000  0.14813000  1.0 -0.3284500579
S  S26  1  0.55609000  0.44629000  0.48146000  1.0 -0.3284500579
S  S27  1  0.10980000  0.55609000  0.81480000  1.0 -0.3284500579
S  S28  1  0.55371000  0.10980000  0.14813000  1.0 -0.3284500579
S  S29  1  0.44391000  0.55371000  0.48146000  1.0 -0.3284500579
S  S30  1  0.89020000  0.44391000  0.81480000  1.0 -0.3284500579
S  S31  1  0.10980000  0.55371000  0.51854000  1.0 -0.3284500579
S  S32  1  0.55609000  0.10980000  0.85187000  1.0 -0.3284500579
S  S33  1  0.44629000  0.55609000  0.18520000  1.0 -0.3284500579
S  S34  1  0.89020000  0.44629000  0.51854000  1.0 -0.3284500579
S  S35  1  0.44391000  0.89020000  0.85187000  1.0 -0.3284500579
S  S36  1  0.55371000  0.44391000  0.18520000  1.0 -0.3284500579
S  S37  1  0.50000000  0.00000000  0.00000000  1.0 -0.6984775454
S  S38  1  0.50000000  0.50000000  0.33333333  1.0 -0.6945165187
S  S39  1  0.00000000  0.50000000  0.66666667  1.0 -0.6945165187
S  S40  1  0.60250000  0.77850000  0.14850000  1.0 0.0208472597
S  S41  1  0.82400000  0.60250000  0.48183000  1.0 0.0208472597
S  S42  1  0.22150000  0.82400000  0.81517000  1.0 0.0208472597
S  S43  1  0.39750000  0.22150000  0.14850000  1.0 0.0208472597
S  S44  1  0.17600000  0.39750000  0.48183000  1.0 0.0208472597
S  S45  1  0.77850000  0.17600000  0.81517000  1.0 0.0208472597
S  S46  1  0.22150000  0.39750000  0.51817000  1.0 0.0208472597
S  S47  1  0.82400000  0.22150000  0.85150000  1.0 0.0208472597
S  S48  1  0.60250000  0.82400000  0.18483000  1.0 0.0208472597
S  S49  1  0.77850000  0.60250000  0.51817000  1.0 0.0208472597
S  S50  1  0.17600000  0.77850000  0.85150000  1.0 0.0208472597
S  S51  1  0.39750000  0.17600000  0.18483000  1.0 0.0208472597
