# DDEC6 charges by PACMAN v1.1 (https://github.com/mtap-research/PACMAN-charge/)
data_XIJSUH_ASR_pacman
_symmetry_space_group_name_H-M   'P 1'
_cell_length_a   18.85170000
_cell_length_b   18.85170000
_cell_length_c   22.92820000
_cell_angle_alpha   65.69260000
_cell_angle_beta   114.30700000
_cell_angle_gamma   120.00400000
_symmetry_Int_Tables_number   1
_chemical_formula_structural   CuH3C8NO4
_chemical_formula_sum   'Cu12 H36 C96 N12 O48'
_cell_volume   6208.40764739
_cell_formula_units_Z   12
loop_
 _symmetry_equiv_pos_site_id
 _symmetry_equiv_pos_as_xyz
  1  'x, y, z'
loop_
 _atom_site_type_symbol
 _atom_site_label
 _atom_site_symmetry_multiplicity
 _atom_site_fract_x
 _atom_site_fract_y
 _atom_site_fract_z
 _atom_site_occupancy
 _atom_site_charge
Cu  Cu1  1  0.74576000  0.22116000  0.81033000  1.0 0.882743129
Cu  Cu2  1  0.79912000  0.30324000  0.70078000  1.0 0.8536305814
Cu  Cu3  1  0.30933000  0.22791000  0.80477000  1.0 0.882743129
Cu  Cu4  1  0.22116000  0.74576000  0.68967000  1.0 0.882743129
Cu  Cu5  1  0.30324000  0.79912000  0.79922000  1.0 0.8536305814
Cu  Cu6  1  0.22791000  0.30933000  0.69523000  1.0 0.8851376264
Cu  Cu7  1  0.25424000  0.77884000  0.18967000  1.0 0.882743129
Cu  Cu8  1  0.20088000  0.69676000  0.29922000  1.0 0.8536305814
Cu  Cu9  1  0.69067000  0.77209000  0.19523000  1.0 0.8851376264
Cu  Cu10  1  0.77884000  0.25424000  0.31033000  1.0 0.882743129
Cu  Cu11  1  0.69676000  0.20088000  0.20078000  1.0 0.8536305814
Cu  Cu12  1  0.77209000  0.69067000  0.30477000  1.0 0.882743129
H  H1  1  0.53800000  0.29200000  0.74950000  1.0 0.1402106081
H  H2  1  0.42010000  0.43350000  0.58580000  1.0 0.1320345142
H  H3  1  0.63620000  0.42620000  0.59240000  1.0 0.1402106081
H  H4  1  0.00360000  0.53060000  0.75570000  1.0 0.1402106081
H  H5  1  0.12030000  0.63270000  0.91010000  1.0 0.1402106081
H  H6  1  0.91020000  0.41420000  0.91410000  1.0 0.1320345142
H  H7  1  0.01730000  0.23450000  0.76130000  1.0 0.1402106081
H  H8  1  0.11920000  0.07900000  0.90970000  1.0 0.1402106081
H  H9  1  0.91530000  0.08310000  0.92170000  1.0 0.1320345142
H  H10  1  0.29200000  0.53800000  0.75050000  1.0 0.1402106081
H  H11  1  0.43350000  0.42010000  0.91420000  1.0 0.1320345142
H  H12  1  0.42620000  0.63620000  0.90760000  1.0 0.1402106081
H  H13  1  0.53060000  0.00360000  0.74430000  1.0 0.1402106081
H  H14  1  0.63270000  0.12030000  0.58990000  1.0 0.1402106081
H  H15  1  0.41420000  0.91020000  0.58590000  1.0 0.1320345142
H  H16  1  0.23450000  0.01730000  0.73870000  1.0 0.1402106081
H  H17  1  0.07900000  0.11920000  0.59030000  1.0 0.1402106081
H  H18  1  0.08310000  0.91530000  0.57830000  1.0 0.1320345142
H  H19  1  0.46200000  0.70800000  0.25050000  1.0 0.1402106081
H  H20  1  0.57990000  0.56650000  0.41420000  1.0 0.1320345142
H  H21  1  0.36380000  0.57380000  0.40760000  1.0 0.1402106081
H  H22  1  0.99640000  0.46940000  0.24430000  1.0 0.1402106081
H  H23  1  0.87970000  0.36730000  0.08990000  1.0 0.1402106081
H  H24  1  0.08980000  0.58580000  0.08590000  1.0 0.1320345142
H  H25  1  0.98270000  0.76550000  0.23870000  1.0 0.1402106081
H  H26  1  0.88080000  0.92100000  0.09030000  1.0 0.1402106081
H  H27  1  0.08470000  0.91690000  0.07830000  1.0 0.1320345142
H  H28  1  0.70800000  0.46200000  0.24950000  1.0 0.1402106081
H  H29  1  0.56650000  0.57990000  0.08580000  1.0 0.1320345142
H  H30  1  0.57380000  0.36380000  0.09240000  1.0 0.1402106081
H  H31  1  0.46940000  0.99640000  0.25570000  1.0 0.1402106081
H  H32  1  0.36730000  0.87970000  0.41010000  1.0 0.1402106081
H  H33  1  0.58580000  0.08980000  0.41410000  1.0 0.1320345142
H  H34  1  0.76550000  0.98270000  0.26130000  1.0 0.1402106081
H  H35  1  0.92100000  0.88080000  0.40970000  1.0 0.1402106081
H  H36  1  0.91690000  0.08470000  0.42170000  1.0 0.1320345142
C  C1  1  0.66280000  0.32380000  0.70490000  1.0 0.5706146746
C  C2  1  0.39420000  0.32000000  0.70270000  1.0 0.5706146746
C  C3  1  0.59320000  0.35460000  0.67580000  1.0 -0.0094972098
C  C4  1  0.53340000  0.32780000  0.70680000  1.0 -0.0819050184
C  C5  1  0.46300000  0.35260000  0.67570000  1.0 -0.0819050184
C  C6  1  0.46140000  0.41120000  0.60780000  1.0 -0.1483961735
C  C7  1  0.52250000  0.43190000  0.57790000  1.0 0.1402106081
C  C8  1  0.59310000  0.40770000  0.61180000  1.0 -0.1483961735
C  C9  1  0.88090000  0.38930000  0.80200000  1.0 0.5879150568
C  C10  1  0.13800000  0.66140000  0.79440000  1.0 0.5804772614
C  C11  1  0.95120000  0.45920000  0.83170000  1.0 -0.0210665437
C  C12  1  0.00770000  0.52770000  0.79840000  1.0 -0.0819050184
C  C13  1  0.07290000  0.59490000  0.82800000  1.0 -0.04413785
C  C14  1  0.07730000  0.59010000  0.88980000  1.0 -0.1103181099
C  C15  1  0.01810000  0.52150000  0.92360000  1.0 0.1511139362
C  C16  1  0.95240000  0.45740000  0.89330000  1.0 -0.1221378276
C  C17  1  0.88360000  0.20040000  0.80210000  1.0 0.5376098542
C  C18  1  0.14900000  0.19480000  0.80000000  1.0 0.5804772614
C  C19  1  0.94440000  0.16740000  0.83160000  1.0 -0.1221378276
C  C20  1  0.01650000  0.19550000  0.80260000  1.0 -0.064721121
C  C21  1  0.07990000  0.16730000  0.83310000  1.0 -0.0094972098
C  C22  1  0.08020000  0.10360000  0.89240000  1.0 -0.1445065996
C  C23  1  0.01870000  0.07790000  0.92500000  1.0 0.1320345142
C  C24  1  0.95480000  0.10460000  0.89800000  1.0 -0.1221378276
C  C25  1  0.32380000  0.66280000  0.79510000  1.0 0.5706146746
C  C26  1  0.32000000  0.39420000  0.79730000  1.0 0.5706146746
C  C27  1  0.35460000  0.59320000  0.82420000  1.0 -0.0094972098
C  C28  1  0.32780000  0.53340000  0.79320000  1.0 -0.0819050184
C  C29  1  0.35260000  0.46300000  0.82430000  1.0 -0.0819050184
C  C30  1  0.41120000  0.46140000  0.89220000  1.0 -0.1483961735
C  C31  1  0.43190000  0.52250000  0.92210000  1.0 0.1402106081
C  C32  1  0.40770000  0.59310000  0.88820000  1.0 -0.1483961735
C  C33  1  0.38930000  0.88090000  0.69800000  1.0 0.5879150568
C  C34  1  0.66140000  0.13800000  0.70560000  1.0 0.5804772614
C  C35  1  0.45920000  0.95120000  0.66830000  1.0 -0.0210665437
C  C36  1  0.52770000  0.00770000  0.70160000  1.0 -0.0819050184
C  C37  1  0.59490000  0.07290000  0.67200000  1.0 -0.04413785
C  C38  1  0.59010000  0.07730000  0.61020000  1.0 -0.1103181099
C  C39  1  0.52150000  0.01810000  0.57640000  1.0 0.1511139362
C  C40  1  0.45740000  0.95240000  0.60670000  1.0 -0.1257212372
C  C41  1  0.20040000  0.88360000  0.69790000  1.0 0.5376098542
C  C42  1  0.19480000  0.14900000  0.70000000  1.0 0.5804772614
C  C43  1  0.16740000  0.94440000  0.66840000  1.0 -0.1257212372
C  C44  1  0.19550000  0.01650000  0.69740000  1.0 -0.064721121
C  C45  1  0.16730000  0.07990000  0.66690000  1.0 -0.0094972098
C  C46  1  0.10360000  0.08020000  0.60760000  1.0 -0.1445065996
C  C47  1  0.07790000  0.01870000  0.57500000  1.0 0.1320345142
C  C48  1  0.10460000  0.95480000  0.60200000  1.0 -0.1221378276
C  C49  1  0.33720000  0.67620000  0.29510000  1.0 0.5706146746
C  C50  1  0.60580000  0.68000000  0.29730000  1.0 0.5706146746
C  C51  1  0.40680000  0.64540000  0.32420000  1.0 -0.0094972098
C  C52  1  0.46660000  0.67220000  0.29320000  1.0 -0.0819050184
C  C53  1  0.53700000  0.64740000  0.32430000  1.0 -0.0819050184
C  C54  1  0.53860000  0.58880000  0.39220000  1.0 -0.1483961735
C  C55  1  0.47750000  0.56810000  0.42210000  1.0 0.1402106081
C  C56  1  0.40690000  0.59230000  0.38820000  1.0 -0.1483961735
C  C57  1  0.11910000  0.61070000  0.19800000  1.0 0.5879150568
C  C58  1  0.86200000  0.33860000  0.20560000  1.0 0.5804772614
C  C59  1  0.04880000  0.54080000  0.16830000  1.0 -0.0210665437
C  C60  1  0.99230000  0.47230000  0.20160000  1.0 -0.0819050184
C  C61  1  0.92710000  0.40510000  0.17200000  1.0 -0.04413785
C  C62  1  0.92270000  0.40990000  0.11020000  1.0 -0.1103181099
C  C63  1  0.98190000  0.47850000  0.07640000  1.0 0.1511139362
C  C64  1  0.04760000  0.54260000  0.10670000  1.0 -0.1257212372
C  C65  1  0.11640000  0.79960000  0.19790000  1.0 0.5376098542
C  C66  1  0.85100000  0.80520000  0.20000000  1.0 0.5804772614
C  C67  1  0.05560000  0.83260000  0.16840000  1.0 -0.1257212372
C  C68  1  0.98350000  0.80450000  0.19740000  1.0 -0.065266131
C  C69  1  0.92010000  0.83270000  0.16690000  1.0 -0.0094972098
C  C70  1  0.91980000  0.89640000  0.10760000  1.0 -0.1483961735
C  C71  1  0.98130000  0.92210000  0.07500000  1.0 0.1402106081
C  C72  1  0.04520000  0.89540000  0.10200000  1.0 -0.1221378276
C  C73  1  0.67620000  0.33720000  0.20490000  1.0 0.5706146746
C  C74  1  0.68000000  0.60580000  0.20270000  1.0 0.5706146746
C  C75  1  0.64540000  0.40680000  0.17580000  1.0 -0.0094972098
C  C76  1  0.67220000  0.46660000  0.20680000  1.0 -0.0819050184
C  C77  1  0.64740000  0.53700000  0.17570000  1.0 -0.0819050184
C  C78  1  0.58880000  0.53860000  0.10780000  1.0 -0.1483961735
C  C79  1  0.56810000  0.47750000  0.07790000  1.0 0.1511139362
C  C80  1  0.59230000  0.40690000  0.11180000  1.0 -0.1483961735
C  C81  1  0.61070000  0.11910000  0.30200000  1.0 0.5879150568
C  C82  1  0.33860000  0.86200000  0.29440000  1.0 0.5804772614
C  C83  1  0.54080000  0.04880000  0.33170000  1.0 -0.0210665437
C  C84  1  0.47230000  0.99230000  0.29840000  1.0 -0.0819050184
C  C85  1  0.40510000  0.92710000  0.32800000  1.0 -0.04413785
C  C86  1  0.40990000  0.92270000  0.38980000  1.0 -0.1103181099
C  C87  1  0.47850000  0.98190000  0.42360000  1.0 0.1511139362
C  C88  1  0.54260000  0.04760000  0.39330000  1.0 -0.1257212372
C  C89  1  0.79960000  0.11640000  0.30210000  1.0 0.5376098542
C  C90  1  0.80520000  0.85100000  0.30000000  1.0 0.5804772614
C  C91  1  0.83260000  0.05560000  0.33160000  1.0 -0.1257212372
C  C92  1  0.80450000  0.98350000  0.30260000  1.0 -0.064721121
C  C93  1  0.83270000  0.92010000  0.33310000  1.0 -0.0094972098
C  C94  1  0.89640000  0.91980000  0.39240000  1.0 -0.1445065996
C  C95  1  0.92210000  0.98130000  0.42500000  1.0 0.1320345142
C  C96  1  0.89540000  0.04520000  0.39800000  1.0 -0.1221378276
N  N1  1  0.52905000  0.48955000  0.51190000  1.0 -0.1103181099
N  N2  1  0.02780000  0.52960000  0.98710000  1.0 -0.1221378276
N  N3  1  0.02860000  0.01400000  0.98850000  1.0 -0.0942423404
N  N4  1  0.48955000  0.52905000  0.98810000  1.0 -0.1103181099
N  N5  1  0.52960000  0.02780000  0.51290000  1.0 -0.1221378276
N  N6  1  0.01400000  0.02860000  0.51150000  1.0 -0.0950366021
N  N7  1  0.47095000  0.51045000  0.48810000  1.0 -0.1103181099
N  N8  1  0.97220000  0.47040000  0.01290000  1.0 -0.1221378276
N  N9  1  0.97140000  0.98600000  0.01150000  1.0 -0.0942423404
N  N10  1  0.51045000  0.47095000  0.01190000  1.0 -0.1103181099
N  N11  1  0.47040000  0.97220000  0.48710000  1.0 -0.1221378276
N  N12  1  0.98600000  0.97140000  0.48850000  1.0 -0.0942423404
O  O1  1  0.66228000  0.27512000  0.76690000  1.0 -0.5417915867
O  O2  1  0.71107000  0.34393000  0.67510000  1.0 -0.4362577782
O  O3  1  0.40311000  0.28009000  0.76390000  1.0 -0.5093059094
O  O4  1  0.33292000  0.34528000  0.66940000  1.0 -0.5417915867
O  O5  1  0.83540000  0.32400000  0.83780000  1.0 -0.5196679345
O  O6  1  0.88097000  0.39643000  0.74417000  1.0 -0.5196679345
O  O7  1  0.13256000  0.66524000  0.73550000  1.0 -0.5196679345
O  O8  1  0.19947000  0.71333000  0.82600000  1.0 -0.5196679345
O  O9  1  0.83307000  0.17653000  0.83800000  1.0 -0.5196679345
O  O10  1  0.87989000  0.24891000  0.74710000  1.0 -0.4637346477
O  O11  1  0.13946000  0.25254000  0.74250000  1.0 -0.5474127145
O  O12  1  0.21824000  0.18496000  0.83090000  1.0 -0.4300520853
O  O13  1  0.27512000  0.66228000  0.73310000  1.0 -0.5417915867
O  O14  1  0.34393000  0.71107000  0.82490000  1.0 -0.4362577782
O  O15  1  0.28009000  0.40311000  0.73610000  1.0 -0.5093059094
O  O16  1  0.34528000  0.33292000  0.83060000  1.0 -0.5417915867
O  O17  1  0.32400000  0.83540000  0.66220000  1.0 -0.5196679345
O  O18  1  0.39643000  0.88097000  0.75583000  1.0 -0.5196679345
O  O19  1  0.66524000  0.13256000  0.76450000  1.0 -0.5196679345
O  O20  1  0.71333000  0.19947000  0.67400000  1.0 -0.5196679345
O  O21  1  0.17653000  0.83307000  0.66200000  1.0 -0.5196679345
O  O22  1  0.24891000  0.87989000  0.75290000  1.0 -0.4637346477
O  O23  1  0.25254000  0.13946000  0.75750000  1.0 -0.5474127145
O  O24  1  0.18496000  0.21824000  0.66910000  1.0 -0.4300520853
O  O25  1  0.33772000  0.72488000  0.23310000  1.0 -0.5417915867
O  O26  1  0.28893000  0.65607000  0.32490000  1.0 -0.4362577782
O  O27  1  0.59689000  0.71991000  0.23610000  1.0 -0.5093059094
O  O28  1  0.66708000  0.65472000  0.33060000  1.0 -0.5417915867
O  O29  1  0.16460000  0.67600000  0.16220000  1.0 -0.5196679345
O  O30  1  0.11903000  0.60357000  0.25583000  1.0 -0.5196679345
O  O31  1  0.86744000  0.33476000  0.26450000  1.0 -0.5196679345
O  O32  1  0.80053000  0.28667000  0.17400000  1.0 -0.5196679345
O  O33  1  0.16693000  0.82347000  0.16200000  1.0 -0.5251774104
O  O34  1  0.12011000  0.75109000  0.25290000  1.0 -0.4637346477
O  O35  1  0.86054000  0.74746000  0.25750000  1.0 -0.5474127145
O  O36  1  0.78176000  0.81504000  0.16910000  1.0 -0.4300520853
O  O37  1  0.72488000  0.33772000  0.26690000  1.0 -0.5417915867
O  O38  1  0.65607000  0.28893000  0.17510000  1.0 -0.4362577782
O  O39  1  0.71991000  0.59689000  0.26390000  1.0 -0.5093059094
O  O40  1  0.65472000  0.66708000  0.16940000  1.0 -0.5417915867
O  O41  1  0.67600000  0.16460000  0.33780000  1.0 -0.5196679345
O  O42  1  0.60357000  0.11903000  0.24417000  1.0 -0.5196679345
O  O43  1  0.33476000  0.86744000  0.23550000  1.0 -0.5196679345
O  O44  1  0.28667000  0.80053000  0.32600000  1.0 -0.5093059094
O  O45  1  0.82347000  0.16693000  0.33800000  1.0 -0.5196679345
O  O46  1  0.75109000  0.12011000  0.24710000  1.0 -0.4637346477
O  O47  1  0.74746000  0.86054000  0.24250000  1.0 -0.5474127145
O  O48  1  0.81504000  0.78176000  0.33090000  1.0 -0.4300520853
