# DDEC6 charges by PACMAN v1.1 (https://github.com/mtap-research/PACMAN-charge/)
data_XIKNOX_ASR_pacman
_symmetry_space_group_name_H-M   'P 1'
_cell_length_a   13.44260000
_cell_length_b   13.44260000
_cell_length_c   18.14880000
_cell_angle_alpha   85.79370000
_cell_angle_beta   94.20630000
_cell_angle_gamma   62.21430000
_symmetry_Int_Tables_number   1
_chemical_formula_structural   NdC12N3(ClO2)3
_chemical_formula_sum   'Nd4 C48 N12 Cl12 O24'
_cell_volume   2872.02173041
_cell_formula_units_Z   4
loop_
 _symmetry_equiv_pos_site_id
 _symmetry_equiv_pos_as_xyz
  1  'x, y, z'
loop_
 _atom_site_type_symbol
 _atom_site_label
 _atom_site_symmetry_multiplicity
 _atom_site_fract_x
 _atom_site_fract_y
 _atom_site_fract_z
 _atom_site_occupancy
 _atom_site_charge
Nd  Nd1  1  0.85307000  0.30737000  0.12056000  1.0 1.811657833
Nd  Nd2  1  0.14693000  0.69263000  0.87944000  1.0 1.8164323439
Nd  Nd3  1  0.30737000  0.85307000  0.37944000  1.0 1.811657833
Nd  Nd4  1  0.69263000  0.14693000  0.62056000  1.0 1.8164323439
C  C1  1  0.90080000  0.09920000  0.01610000  1.0 0.2303452759
C  C2  1  0.01770000  0.05830000  0.05940000  1.0 0.2422338942
C  C3  1  0.88870000  0.03710000  0.96060000  1.0 -0.2183477321
C  C4  1  0.61910000  0.47130000  0.00270000  1.0 0.247485067
C  C5  1  0.57530000  0.41990000  0.06210000  1.0 0.2422338942
C  C6  1  0.46020000  0.45020000  0.05710000  1.0 -0.1696784086
C  C7  1  0.98980000  0.39800000  0.01180000  1.0 0.2205006798
C  C8  1  0.92740000  0.49900000  0.05450000  1.0 0.247485067
C  C9  1  0.93990000  0.59610000  0.03980000  1.0 -0.1405156515
C  C10  1  0.41990000  0.36930000  0.11720000  1.0 0.1572995652
C  C11  1  0.88580000  0.69240000  0.09820000  1.0 0.2118208279
C  C12  1  0.75170000  0.09170000  0.91060000  1.0 0.2303452759
C  C13  1  0.09920000  0.90080000  0.98390000  1.0 0.2303452759
C  C14  1  0.98230000  0.94170000  0.94060000  1.0 0.2303452759
C  C15  1  0.11130000  0.96290000  0.03940000  1.0 -0.2183477321
C  C16  1  0.38090000  0.52870000  0.99730000  1.0 0.247485067
C  C17  1  0.42470000  0.58010000  0.93790000  1.0 0.2422338942
C  C18  1  0.53980000  0.54980000  0.94290000  1.0 -0.1696784086
C  C19  1  0.01020000  0.60200000  0.98820000  1.0 0.2205006798
C  C20  1  0.07260000  0.50100000  0.94550000  1.0 0.247485067
C  C21  1  0.06010000  0.40390000  0.96020000  1.0 -0.1405156515
C  C22  1  0.58010000  0.63070000  0.88280000  1.0 0.149858735
C  C23  1  0.11420000  0.30760000  0.90180000  1.0 0.2205006798
C  C24  1  0.24830000  0.90830000  0.08940000  1.0 0.2303452759
C  C25  1  0.09920000  0.90080000  0.48390000  1.0 0.2303452759
C  C26  1  0.05830000  0.01770000  0.44060000  1.0 0.2303452759
C  C27  1  0.03710000  0.88870000  0.53940000  1.0 -0.2183477321
C  C28  1  0.47130000  0.61910000  0.49730000  1.0 0.247485067
C  C29  1  0.41990000  0.57530000  0.43790000  1.0 0.2422338942
C  C30  1  0.45020000  0.46020000  0.44290000  1.0 -0.1696784086
C  C31  1  0.39800000  0.98980000  0.48820000  1.0 0.2303452759
C  C32  1  0.49900000  0.92740000  0.44550000  1.0 0.247485067
C  C33  1  0.59610000  0.93990000  0.46020000  1.0 -0.1405156515
C  C34  1  0.36930000  0.41990000  0.38280000  1.0 0.149858735
C  C35  1  0.69240000  0.88580000  0.40180000  1.0 0.2205006798
C  C36  1  0.09170000  0.75170000  0.58940000  1.0 0.2303452759
C  C37  1  0.90080000  0.09920000  0.51610000  1.0 0.2303452759
C  C38  1  0.94170000  0.98230000  0.55940000  1.0 0.2303452759
C  C39  1  0.96290000  0.11130000  0.46060000  1.0 -0.2183477321
C  C40  1  0.52870000  0.38090000  0.50270000  1.0 0.2422338942
C  C41  1  0.58010000  0.42470000  0.56210000  1.0 0.2422338942
C  C42  1  0.54980000  0.53980000  0.55710000  1.0 -0.1696784086
C  C43  1  0.60200000  0.01020000  0.51180000  1.0 0.2303452759
C  C44  1  0.50100000  0.07260000  0.55450000  1.0 0.247485067
C  C45  1  0.40390000  0.06010000  0.53980000  1.0 -0.1405156515
C  C46  1  0.63070000  0.58010000  0.61720000  1.0 0.149858735
C  C47  1  0.30760000  0.11420000  0.59820000  1.0 0.2205006798
C  C48  1  0.90830000  0.24830000  0.41060000  1.0 0.2205006798
N  N1  1  0.38550000  0.36810000  0.15930000  1.0 -0.2183477321
N  N2  1  0.82800000  0.77060000  0.10640000  1.0 -0.225795215
N  N3  1  0.68820000  0.09940000  0.89180000  1.0 -0.2183477321
N  N4  1  0.61450000  0.63190000  0.84070000  1.0 -0.2183477321
N  N5  1  0.17200000  0.22940000  0.89360000  1.0 -0.2183477321
N  N6  1  0.31180000  0.90060000  0.10820000  1.0 -0.2183477321
N  N7  1  0.36810000  0.38550000  0.34070000  1.0 -0.2057542931
N  N8  1  0.77060000  0.82800000  0.39360000  1.0 -0.225795215
N  N9  1  0.09940000  0.68820000  0.60820000  1.0 -0.2183477321
N  N10  1  0.63190000  0.61450000  0.65930000  1.0 -0.2183477321
N  N11  1  0.22940000  0.17200000  0.60640000  1.0 -0.2183477321
N  N12  1  0.90060000  0.31180000  0.39180000  1.0 -0.2183477321
Cl  Cl1  1  0.75990000  0.08430000  0.91150000  1.0 0.3098567818
Cl  Cl2  1  0.41450000  0.39790000  0.12690000  1.0 0.1249087025
Cl  Cl3  1  0.86119000  0.71659000  0.08240000  1.0 0.0924471189
Cl  Cl4  1  0.24010000  0.91570000  0.08850000  1.0 0.3098567818
Cl  Cl5  1  0.58550000  0.60210000  0.87310000  1.0 0.1259420484
Cl  Cl6  1  0.13881000  0.28341000  0.91760000  1.0 0.095381247
Cl  Cl7  1  0.08430000  0.75990000  0.58850000  1.0 0.3098567818
Cl  Cl8  1  0.39790000  0.41450000  0.37310000  1.0 0.1259420484
Cl  Cl9  1  0.71659000  0.86119000  0.41760000  1.0 0.0924471189
Cl  Cl10  1  0.91570000  0.24010000  0.41150000  1.0 0.3098567818
Cl  Cl11  1  0.60210000  0.58550000  0.62690000  1.0 0.1259420484
Cl  Cl12  1  0.28341000  0.13881000  0.58240000  1.0 0.095381247
O  O1  1  0.02066000  0.11326000  0.11100000  1.0 -0.5570656787
O  O2  1  0.82171000  0.18911000  0.03260000  1.0 -0.5335465129
O  O3  1  0.72179000  0.44119000  0.01100000  1.0 -0.4644144606
O  O4  1  0.64953000  0.35153000  0.11250000  1.0 -0.5702978055
O  O5  1  0.97364000  0.31424000  0.02640000  1.0 -0.5044554602
O  O6  1  0.86851000  0.48771000  0.10130000  1.0 -0.5527150363
O  O7  1  0.97934000  0.88674000  0.88900000  1.0 -0.5527150363
O  O8  1  0.17829000  0.81089000  0.96740000  1.0 -0.5335465129
O  O9  1  0.27821000  0.55881000  0.98900000  1.0 -0.4666333478
O  O10  1  0.35047000  0.64847000  0.88750000  1.0 -0.5702978055
O  O11  1  0.02636000  0.68576000  0.97360000  1.0 -0.5060975085
O  O12  1  0.13149000  0.51229000  0.89870000  1.0 -0.5527150363
O  O13  1  0.11326000  0.02066000  0.38900000  1.0 -0.5570656787
O  O14  1  0.18911000  0.82171000  0.46740000  1.0 -0.5335465129
O  O15  1  0.44119000  0.72179000  0.48900000  1.0 -0.4666333478
O  O16  1  0.35153000  0.64953000  0.38750000  1.0 -0.5702978055
O  O17  1  0.31424000  0.97364000  0.47360000  1.0 -0.5060975085
O  O18  1  0.48771000  0.86851000  0.39870000  1.0 -0.5527150363
O  O19  1  0.88674000  0.97934000  0.61100000  1.0 -0.5527150363
O  O20  1  0.81089000  0.17829000  0.53260000  1.0 -0.5335465129
O  O21  1  0.55881000  0.27821000  0.51100000  1.0 -0.4644144606
O  O22  1  0.64847000  0.35047000  0.61250000  1.0 -0.5702978055
O  O23  1  0.68576000  0.02636000  0.52640000  1.0 -0.5044554602
O  O24  1  0.51229000  0.13149000  0.60130000  1.0 -0.5527150363
