# DDEC6 charges by PACMAN v1.1 (https://github.com/mtap-research/PACMAN-charge/)
data_XILSUI_ASR_pacman
_symmetry_space_group_name_H-M   'P 1'
_cell_length_a   13.84850000
_cell_length_b   13.84850000
_cell_length_c   16.55100000
_cell_angle_alpha   70.54420000
_cell_angle_beta   109.45600000
_cell_angle_gamma   106.11100000
_symmetry_Int_Tables_number   1
_chemical_formula_structural   Ti2MnZn2H36C72(N4O11)2
_chemical_formula_sum   'Ti2 Mn1 Zn2 H36 C72 N8 O22'
_cell_volume   2772.05121833
_cell_formula_units_Z   1
loop_
 _symmetry_equiv_pos_site_id
 _symmetry_equiv_pos_as_xyz
  1  'x, y, z'
loop_
 _atom_site_type_symbol
 _atom_site_label
 _atom_site_symmetry_multiplicity
 _atom_site_fract_x
 _atom_site_fract_y
 _atom_site_fract_z
 _atom_site_occupancy
 _atom_site_charge
Ti  Ti1  1  0.29750000  0.70250000  0.83200000  1.0 1.9919914843
Ti  Ti2  1  0.70250000  0.29750000  0.16800000  1.0 1.9919914843
Mn  Mn1  1  0.50000000  0.50000000  0.00000000  1.0 0.9326182248
Zn  Zn1  1  0.92668000  0.07332000  0.46376000  1.0 0.84679904
Zn  Zn2  1  0.07332000  0.92668000  0.53624000  1.0 0.84679904
H  H1  1  0.79260000  0.80060000  0.07190000  1.0 0.1180419379
H  H2  1  0.80060000  0.79260000  0.92810000  1.0 0.1180419379
H  H3  1  0.20740000  0.19940000  0.92810000  1.0 0.1180419379
H  H4  1  0.19940000  0.20740000  0.07190000  1.0 0.1180419379
H  H5  1  0.55150000  0.59630000  0.28450000  1.0 0.1124866596
H  H6  1  0.59630000  0.55150000  0.71550000  1.0 0.1124866596
H  H7  1  0.44850000  0.40370000  0.71550000  1.0 0.1124866596
H  H8  1  0.40370000  0.44850000  0.28450000  1.0 0.1124866596
H  H9  1  0.78940000  0.62980000  0.26990000  1.0 0.1290128054
H  H10  1  0.62980000  0.78940000  0.73010000  1.0 0.1290128054
H  H11  1  0.21060000  0.37020000  0.73010000  1.0 0.1290128054
H  H12  1  0.37020000  0.21060000  0.26990000  1.0 0.1290128054
H  H13  1  0.89600000  0.72860000  0.37330000  1.0 0.1290128054
H  H14  1  0.72860000  0.89600000  0.62670000  1.0 0.1290128054
H  H15  1  0.10400000  0.27140000  0.62670000  1.0 0.1290128054
H  H16  1  0.27140000  0.10400000  0.37330000  1.0 0.1290128054
H  H17  1  0.71690000  0.94290000  0.24700000  1.0 0.1363808082
H  H18  1  0.94290000  0.71690000  0.75300000  1.0 0.1363808082
H  H19  1  0.28310000  0.05710000  0.75300000  1.0 0.1363808082
H  H20  1  0.05710000  0.28310000  0.24700000  1.0 0.1363808082
H  H21  1  0.61000000  0.84000000  0.14710000  1.0 0.1180419379
H  H22  1  0.84000000  0.61000000  0.85290000  1.0 0.1180419379
H  H23  1  0.39000000  0.16000000  0.85290000  1.0 0.1180419379
H  H24  1  0.16000000  0.39000000  0.14710000  1.0 0.1180419379
H  H25  1  0.78550000  0.21450000  0.33740000  1.0 0.3055275323
H  H26  1  0.21450000  0.78550000  0.66260000  1.0 0.3055275323
H  H27  1  0.67730000  0.32270000  0.32790000  1.0 0.3262176605
H  H28  1  0.32270000  0.67730000  0.67210000  1.0 0.3262176605
H  H29  1  0.75750000  0.24250000  0.58590000  1.0 0.1290128054
H  H30  1  0.24250000  0.75750000  0.41410000  1.0 0.1290128054
H  H31  1  0.86550000  0.13450000  0.58790000  1.0 0.1124866596
H  H32  1  0.13450000  0.86550000  0.41210000  1.0 0.1124866596
H  H33  1  0.35470000  0.25730000  0.48770000  1.0 0.1363808082
H  H34  1  0.25730000  0.35470000  0.51230000  1.0 0.1363808082
H  H35  1  0.64530000  0.74270000  0.51230000  1.0 0.1363808082
H  H36  1  0.74270000  0.64530000  0.48770000  1.0 0.1363808082
C  C1  1  0.74930000  0.75430000  0.03920000  1.0 -0.1632881521
C  C2  1  0.75430000  0.74930000  0.96080000  1.0 -0.1632881521
C  C3  1  0.25070000  0.24570000  0.96080000  1.0 -0.1632881521
C  C4  1  0.24570000  0.25070000  0.03920000  1.0 -0.1632881521
C  C5  1  0.66420000  0.67440000  0.06260000  1.0 0.1739481331
C  C6  1  0.67440000  0.66420000  0.93740000  1.0 0.1739481331
C  C7  1  0.33580000  0.32560000  0.93740000  1.0 0.1739481331
C  C8  1  0.32560000  0.33580000  0.06260000  1.0 0.1739481331
C  C9  1  0.63180000  0.65840000  0.13910000  1.0 -0.0497011116
C  C10  1  0.65840000  0.63180000  0.86090000  1.0 -0.0497011116
C  C11  1  0.36820000  0.34160000  0.86090000  1.0 -0.0497011116
C  C12  1  0.34160000  0.36820000  0.13910000  1.0 -0.0497011116
C  C13  1  0.55100000  0.57960000  0.16190000  1.0 0.1601527499
C  C14  1  0.57960000  0.55100000  0.83810000  1.0 0.1601527499
C  C15  1  0.44900000  0.42040000  0.83810000  1.0 0.1601527499
C  C16  1  0.42040000  0.44900000  0.16190000  1.0 0.1601527499
C  C17  1  0.52110000  0.56010000  0.24120000  1.0 -0.1713796018
C  C18  1  0.56010000  0.52110000  0.75880000  1.0 -0.1713796018
C  C19  1  0.47890000  0.43990000  0.75880000  1.0 -0.1713796018
C  C20  1  0.43990000  0.47890000  0.24120000  1.0 -0.1713796018
C  C21  1  0.69300000  0.72400000  0.20160000  1.0 0.0545592827
C  C22  1  0.72400000  0.69300000  0.79840000  1.0 0.0545592827
C  C23  1  0.30700000  0.27600000  0.79840000  1.0 0.0545592827
C  C24  1  0.27600000  0.30700000  0.20160000  1.0 0.0545592827
C  C25  1  0.77340000  0.69280000  0.26520000  1.0 -0.1215645897
C  C26  1  0.69280000  0.77340000  0.73480000  1.0 -0.1215645897
C  C27  1  0.22660000  0.30720000  0.73480000  1.0 -0.1215645897
C  C28  1  0.30720000  0.22660000  0.26520000  1.0 -0.1215645897
C  C29  1  0.83880000  0.75140000  0.32890000  1.0 -0.0904300234
C  C30  1  0.75140000  0.83880000  0.67110000  1.0 -0.0904300234
C  C31  1  0.16120000  0.24860000  0.67110000  1.0 -0.0904300234
C  C32  1  0.24860000  0.16120000  0.32890000  1.0 -0.0904300234
C  C33  1  0.81000000  0.84200000  0.31860000  1.0 -0.0174695284
C  C34  1  0.84200000  0.81000000  0.68140000  1.0 -0.0174695284
C  C35  1  0.19000000  0.15800000  0.68140000  1.0 -0.0174695284
C  C36  1  0.15800000  0.19000000  0.31860000  1.0 -0.0174695284
C  C37  1  0.73090000  0.87850000  0.25310000  1.0 -0.0904300234
C  C38  1  0.87850000  0.73090000  0.74690000  1.0 -0.0904300234
C  C39  1  0.26910000  0.12150000  0.74690000  1.0 -0.0904300234
C  C40  1  0.12150000  0.26910000  0.25310000  1.0 -0.0904300234
C  C41  1  0.66700000  0.81720000  0.19190000  1.0 -0.1424879229
C  C42  1  0.81720000  0.66700000  0.80810000  1.0 -0.1424879229
C  C43  1  0.33300000  0.18280000  0.80810000  1.0 -0.1424879229
C  C44  1  0.18280000  0.33300000  0.19190000  1.0 -0.1424879229
C  C45  1  0.87790000  0.90990000  0.38470000  1.0 0.5703538598
C  C46  1  0.90990000  0.87790000  0.61530000  1.0 0.5703538598
C  C47  1  0.12210000  0.09010000  0.61530000  1.0 0.5703538598
C  C48  1  0.09010000  0.12210000  0.38470000  1.0 0.5703538598
C  C49  1  0.78160000  0.21840000  0.39120000  1.0 0.2184786664
C  C50  1  0.21840000  0.78160000  0.60880000  1.0 0.2184786664
C  C51  1  0.71400000  0.28600000  0.38250000  1.0 -0.2005285306
C  C52  1  0.28600000  0.71400000  0.61750000  1.0 -0.2005285306
C  C53  1  0.70920000  0.29080000  0.45890000  1.0 0.1601527499
C  C54  1  0.29080000  0.70920000  0.54110000  1.0 0.1601527499
C  C55  1  0.76190000  0.23810000  0.53250000  1.0 -0.2216014585
C  C56  1  0.23810000  0.76190000  0.46750000  1.0 -0.2216014585
C  C57  1  0.82800000  0.17200000  0.53410000  1.0 0.067378042
C  C58  1  0.17200000  0.82800000  0.46590000  1.0 0.067378042
C  C59  1  0.54580000  0.30780000  0.46800000  1.0 0.4529309513
C  C60  1  0.30780000  0.54580000  0.53200000  1.0 0.4529309513
C  C61  1  0.45420000  0.69220000  0.53200000  1.0 0.4529309513
C  C62  1  0.69220000  0.45420000  0.46800000  1.0 0.4529309513
C  C63  1  0.38350000  0.32510000  0.49210000  1.0 -0.0846485349
C  C64  1  0.32510000  0.38350000  0.50790000  1.0 -0.0846485349
C  C65  1  0.61650000  0.67490000  0.50790000  1.0 -0.0846485349
C  C66  1  0.67490000  0.61650000  0.49210000  1.0 -0.0846485349
C  C67  1  0.48180000  0.36860000  0.48350000  1.0 -0.0497011116
C  C68  1  0.36860000  0.48180000  0.51650000  1.0 -0.0497011116
C  C69  1  0.51820000  0.63140000  0.51650000  1.0 -0.0497011116
C  C70  1  0.63140000  0.51820000  0.48350000  1.0 -0.0497011116
C  C71  1  0.53110000  0.46890000  0.49280000  1.0 0.0342428179
C  C72  1  0.46890000  0.53110000  0.50720000  1.0 0.0342428179
N  N1  1  0.61830000  0.61830000  0.00000000  1.0 -0.2377731262
N  N2  1  0.38170000  0.38170000  0.00000000  1.0 -0.2377731262
N  N3  1  0.48790000  0.51210000  0.11070000  1.0 -0.2216014585
N  N4  1  0.51210000  0.48790000  0.88930000  1.0 -0.2216014585
N  N5  1  0.83410000  0.16590000  0.45590000  1.0 -0.2216014585
N  N6  1  0.16590000  0.83410000  0.54410000  1.0 -0.2216014585
N  N7  1  0.64420000  0.35580000  0.46080000  1.0 -0.2216014585
N  N8  1  0.35580000  0.64420000  0.53920000  1.0 -0.2216014585
O  O1  1  0.84150000  0.98930000  0.37750000  1.0 -0.4847090302
O  O2  1  0.98930000  0.84150000  0.62250000  1.0 -0.4847090302
O  O3  1  0.15850000  0.01070000  0.62250000  1.0 -0.4847090302
O  O4  1  0.01070000  0.15850000  0.37750000  1.0 -0.4847090302
O  O5  1  0.95470000  0.87470000  0.43900000  1.0 -0.5345404504
O  O6  1  0.87470000  0.95470000  0.56100000  1.0 -0.5345404504
O  O7  1  0.04530000  0.12530000  0.56100000  1.0 -0.5345404504
O  O8  1  0.12530000  0.04530000  0.43900000  1.0 -0.5345404504
O  O9  1  0.50610000  0.22270000  0.45460000  1.0 -0.3968526183
O  O10  1  0.22270000  0.50610000  0.54540000  1.0 -0.3968526183
O  O11  1  0.49390000  0.77730000  0.54540000  1.0 -0.3968526183
O  O12  1  0.77730000  0.49390000  0.45460000  1.0 -0.3968526183
O  O13  1  0.38950000  0.61050000  0.92850000  1.0 -0.9224380611
O  O14  1  0.61050000  0.38950000  0.07150000  1.0 -0.9224380611
O  O15  1  0.39590000  0.71830000  0.76040000  1.0 -0.3509112282
O  O16  1  0.71830000  0.39590000  0.23960000  1.0 -0.3509112282
O  O17  1  0.60410000  0.28170000  0.23960000  1.0 -0.3509112282
O  O18  1  0.28170000  0.60410000  0.76040000  1.0 -0.3509112282
O  O19  1  0.30530000  0.84570000  0.72050000  1.0 -0.7489143221
O  O20  1  0.84570000  0.30530000  0.27950000  1.0 -0.7489143221
O  O21  1  0.69470000  0.15430000  0.27950000  1.0 -0.7489143221
O  O22  1  0.15430000  0.69470000  0.72050000  1.0 -0.7489143221
