# DDEC6 charges by PACMAN v1.1 (https://github.com/mtap-research/PACMAN-charge/)
data_XILTAP_ASR_pacman
_symmetry_space_group_name_H-M   'P 1'
_cell_length_a   13.89600000
_cell_length_b   13.89600000
_cell_length_c   16.24000000
_cell_angle_alpha   65.60390000
_cell_angle_beta   114.39600000
_cell_angle_gamma   105.06200000
_symmetry_Int_Tables_number   1
_chemical_formula_structural   MnZn2H36C72(N2O3)4
_chemical_formula_sum   'Mn1 Zn2 H36 C72 N8 O12'
_cell_volume   2585.81906996
_cell_formula_units_Z   1
loop_
 _symmetry_equiv_pos_site_id
 _symmetry_equiv_pos_as_xyz
  1  'x, y, z'
loop_
 _atom_site_type_symbol
 _atom_site_label
 _atom_site_symmetry_multiplicity
 _atom_site_fract_x
 _atom_site_fract_y
 _atom_site_fract_z
 _atom_site_occupancy
 _atom_site_charge
Mn  Mn1  1  0.50000000  0.50000000  0.00000000  1.0 0.7234414558
Zn  Zn1  1  0.92180000  0.07820000  0.45206000  1.0 0.8343879322
Zn  Zn2  1  0.07820000  0.92180000  0.54794000  1.0 0.8343879322
H  H1  1  0.76410000  0.23590000  0.31310000  1.0 0.1120391177
H  H2  1  0.23590000  0.76410000  0.68690000  1.0 0.1120391177
H  H3  1  0.88040000  0.11960000  0.59250000  1.0 0.1120391177
H  H4  1  0.11960000  0.88040000  0.40750000  1.0 0.1120391177
H  H5  1  0.65550000  0.34450000  0.31350000  1.0 0.1571783106
H  H6  1  0.34450000  0.65550000  0.68650000  1.0 0.1571783106
H  H7  1  0.77230000  0.22770000  0.59620000  1.0 0.145203192
H  H8  1  0.22770000  0.77230000  0.40380000  1.0 0.145203192
H  H9  1  0.89640000  0.73620000  0.37910000  1.0 0.1269203017
H  H10  1  0.73620000  0.89640000  0.62090000  1.0 0.1269203017
H  H11  1  0.10360000  0.26380000  0.62090000  1.0 0.1269203017
H  H12  1  0.26380000  0.10360000  0.37910000  1.0 0.1269203017
H  H13  1  0.69520000  0.94580000  0.22770000  1.0 0.1269203017
H  H14  1  0.94580000  0.69520000  0.77230000  1.0 0.1269203017
H  H15  1  0.30480000  0.05420000  0.77230000  1.0 0.1269203017
H  H16  1  0.05420000  0.30480000  0.22770000  1.0 0.1269203017
H  H17  1  0.79750000  0.63630000  0.28540000  1.0 0.1269203017
H  H18  1  0.63630000  0.79750000  0.71460000  1.0 0.1269203017
H  H19  1  0.20250000  0.36370000  0.71460000  1.0 0.1269203017
H  H20  1  0.36370000  0.20250000  0.28540000  1.0 0.1269203017
H  H21  1  0.58920000  0.84320000  0.13430000  1.0 0.1187361582
H  H22  1  0.84320000  0.58920000  0.86570000  1.0 0.1187361582
H  H23  1  0.41080000  0.15680000  0.86570000  1.0 0.1187361582
H  H24  1  0.15680000  0.41080000  0.13430000  1.0 0.1187361582
H  H25  1  0.36540000  0.25920000  0.49220000  1.0 0.1353930871
H  H26  1  0.25920000  0.36540000  0.50780000  1.0 0.1353930871
H  H27  1  0.63460000  0.74080000  0.50780000  1.0 0.1353930871
H  H28  1  0.74080000  0.63460000  0.49220000  1.0 0.1353930871
H  H29  1  0.78410000  0.79630000  0.06930000  1.0 0.1269203017
H  H30  1  0.79630000  0.78410000  0.93070000  1.0 0.1269203017
H  H31  1  0.21590000  0.20370000  0.93070000  1.0 0.1269203017
H  H32  1  0.20370000  0.21590000  0.06930000  1.0 0.1269203017
H  H33  1  0.52310000  0.61590000  0.26860000  1.0 0.1187361582
H  H34  1  0.61590000  0.52310000  0.73140000  1.0 0.1187361582
H  H35  1  0.47690000  0.38410000  0.73140000  1.0 0.1187361582
H  H36  1  0.38410000  0.47690000  0.26860000  1.0 0.1120391177
C  C1  1  0.86970000  0.91530000  0.37750000  1.0 0.5874875526
C  C2  1  0.91530000  0.86970000  0.62250000  1.0 0.5874875526
C  C3  1  0.13030000  0.08470000  0.62250000  1.0 0.5874875526
C  C4  1  0.08470000  0.13030000  0.37750000  1.0 0.5874875526
C  C5  1  0.76680000  0.23320000  0.37220000  1.0 0.1269203017
C  C6  1  0.23320000  0.76680000  0.62780000  1.0 0.1269203017
C  C7  1  0.83590000  0.16410000  0.53620000  1.0 0.1120391177
C  C8  1  0.16410000  0.83590000  0.46380000  1.0 0.1120391177
C  C9  1  0.80120000  0.85180000  0.31330000  1.0 -0.0268613926
C  C10  1  0.85180000  0.80120000  0.68670000  1.0 -0.0268613926
C  C11  1  0.19880000  0.14820000  0.68670000  1.0 -0.0268613926
C  C12  1  0.14820000  0.19880000  0.31330000  1.0 -0.0268613926
C  C13  1  0.69920000  0.30080000  0.37100000  1.0 -0.2203850483
C  C14  1  0.30080000  0.69920000  0.62900000  1.0 -0.2203850483
C  C15  1  0.76980000  0.23020000  0.53730000  1.0 -0.2124603128
C  C16  1  0.23020000  0.76980000  0.46270000  1.0 -0.2124603128
C  C17  1  0.83380000  0.75920000  0.32920000  1.0 -0.1176450585
C  C18  1  0.75920000  0.83380000  0.67080000  1.0 -0.1176450585
C  C19  1  0.16620000  0.24080000  0.67080000  1.0 -0.1176450585
C  C20  1  0.24080000  0.16620000  0.32920000  1.0 -0.1176450585
C  C21  1  0.71620000  0.88080000  0.24170000  1.0 -0.1059894969
C  C22  1  0.88080000  0.71620000  0.75830000  1.0 -0.1047119384
C  C23  1  0.28380000  0.11920000  0.75830000  1.0 -0.1059894969
C  C24  1  0.11920000  0.28380000  0.24170000  1.0 -0.1059894969
C  C25  1  0.70390000  0.29610000  0.45320000  1.0 0.1950650404
C  C26  1  0.29610000  0.70390000  0.54680000  1.0 0.1950650404
C  C27  1  0.77400000  0.70000000  0.27150000  1.0 -0.141142722
C  C28  1  0.70000000  0.77400000  0.72850000  1.0 -0.141142722
C  C29  1  0.22600000  0.30000000  0.72850000  1.0 -0.141142722
C  C30  1  0.30000000  0.22600000  0.27150000  1.0 -0.141142722
C  C31  1  0.65270000  0.82050000  0.18290000  1.0 -0.1592481395
C  C32  1  0.82050000  0.65270000  0.81710000  1.0 -0.1592481395
C  C33  1  0.34730000  0.17950000  0.81710000  1.0 -0.1592481395
C  C34  1  0.17950000  0.34730000  0.18290000  1.0 -0.1592481395
C  C35  1  0.68590000  0.72690000  0.19820000  1.0 0.0669351632
C  C36  1  0.72690000  0.68590000  0.80180000  1.0 0.0669351632
C  C37  1  0.31410000  0.27310000  0.80180000  1.0 0.0669351632
C  C38  1  0.27310000  0.31410000  0.19820000  1.0 0.0669351632
C  C39  1  0.54550000  0.30470000  0.47350000  1.0 0.4434565644
C  C40  1  0.30470000  0.54550000  0.52650000  1.0 0.4434565644
C  C41  1  0.45450000  0.69530000  0.52650000  1.0 0.4434565644
C  C42  1  0.69530000  0.45450000  0.47350000  1.0 0.4434565644
C  C43  1  0.62490000  0.66470000  0.13340000  1.0 -0.0573754122
C  C44  1  0.66470000  0.62490000  0.86660000  1.0 -0.0573754122
C  C45  1  0.37510000  0.33530000  0.86660000  1.0 -0.0573754122
C  C46  1  0.33530000  0.37510000  0.13340000  1.0 -0.0573754122
C  C47  1  0.48500000  0.37220000  0.48710000  1.0 -0.0402436747
C  C48  1  0.37220000  0.48500000  0.51290000  1.0 -0.0402436747
C  C49  1  0.51500000  0.62780000  0.51290000  1.0 -0.0402436747
C  C50  1  0.62780000  0.51500000  0.48710000  1.0 -0.0402436747
C  C51  1  0.66380000  0.67420000  0.06470000  1.0 0.1571783106
C  C52  1  0.67420000  0.66380000  0.93530000  1.0 0.1571783106
C  C53  1  0.33620000  0.32580000  0.93530000  1.0 0.1571783106
C  C54  1  0.32580000  0.33620000  0.06470000  1.0 0.1571783106
C  C55  1  0.54120000  0.59140000  0.15680000  1.0 0.1571783106
C  C56  1  0.59140000  0.54120000  0.84320000  1.0 0.1571783106
C  C57  1  0.45880000  0.40860000  0.84320000  1.0 0.1571783106
C  C58  1  0.40860000  0.45880000  0.15680000  1.0 0.1571783106
C  C59  1  0.39110000  0.32730000  0.49420000  1.0 -0.0719420032
C  C60  1  0.32730000  0.39110000  0.50580000  1.0 -0.0719420032
C  C61  1  0.60890000  0.67270000  0.50580000  1.0 -0.0719420032
C  C62  1  0.67270000  0.60890000  0.49420000  1.0 -0.0719420032
C  C63  1  0.53230000  0.46770000  0.49620000  1.0 0.0333069603
C  C64  1  0.46770000  0.53230000  0.50380000  1.0 0.0333069603
C  C65  1  0.74200000  0.74860000  0.03830000  1.0 -0.190672742
C  C66  1  0.74860000  0.74200000  0.96170000  1.0 -0.190672742
C  C67  1  0.25800000  0.25140000  0.96170000  1.0 -0.190672742
C  C68  1  0.25140000  0.25800000  0.03830000  1.0 -0.190672742
C  C69  1  0.49930000  0.57650000  0.22800000  1.0 -0.190672742
C  C70  1  0.57650000  0.49930000  0.77200000  1.0 -0.190672742
C  C71  1  0.50070000  0.42350000  0.77200000  1.0 -0.190672742
C  C72  1  0.42350000  0.50070000  0.22800000  1.0 -0.190672742
N  N1  1  0.82780000  0.17220000  0.44760000  1.0 -0.2203850483
N  N2  1  0.17220000  0.82780000  0.55240000  1.0 -0.2203850483
N  N3  1  0.64370000  0.35630000  0.46380000  1.0 -0.2408362885
N  N4  1  0.35630000  0.64370000  0.53620000  1.0 -0.2408362885
N  N5  1  0.61930000  0.61930000  0.00000000  1.0 -0.3688741883
N  N6  1  0.38070000  0.38070000  0.00000000  1.0 -0.3688741883
N  N7  1  0.48210000  0.51790000  0.10860000  1.0 -0.4100353678
N  N8  1  0.51790000  0.48210000  0.89140000  1.0 -0.4100353678
O  O1  1  0.83430000  0.99690000  0.36490000  1.0 -0.518434759
O  O2  1  0.99690000  0.83430000  0.63510000  1.0 -0.518434759
O  O3  1  0.16570000  0.00310000  0.63510000  1.0 -0.518434759
O  O4  1  0.00310000  0.16570000  0.36490000  1.0 -0.518434759
O  O5  1  0.88150000  0.95310000  0.55890000  1.0 -0.5384483149
O  O6  1  0.95310000  0.88150000  0.44110000  1.0 -0.5384483149
O  O7  1  0.11850000  0.04690000  0.44110000  1.0 -0.5384483149
O  O8  1  0.04690000  0.11850000  0.55890000  1.0 -0.5384483149
O  O9  1  0.51370000  0.21730000  0.47070000  1.0 -0.3912129661
O  O10  1  0.21730000  0.51370000  0.52930000  1.0 -0.3912129661
O  O11  1  0.48630000  0.78270000  0.52930000  1.0 -0.3912129661
O  O12  1  0.78270000  0.48630000  0.47070000  1.0 -0.3912129661
