# DDEC6 charges by PACMAN v1.1 (https://github.com/mtap-research/PACMAN-charge/)
data_XILVIZ_ASR_pacman
_symmetry_space_group_name_H-M   'P 1'
_cell_length_a   13.37200000
_cell_length_b   14.16400000
_cell_length_c   16.71300000
_cell_angle_alpha   69.62600000
_cell_angle_beta   68.78600000
_cell_angle_gamma   73.54400000
_symmetry_Int_Tables_number   1
_chemical_formula_structural   MnZn2H52C88(N2O3)4
_chemical_formula_sum   'Mn1 Zn2 H52 C88 N8 O12'
_cell_volume   2721.15985599
_cell_formula_units_Z   1
loop_
 _symmetry_equiv_pos_site_id
 _symmetry_equiv_pos_as_xyz
  1  'x, y, z'
loop_
 _atom_site_type_symbol
 _atom_site_label
 _atom_site_symmetry_multiplicity
 _atom_site_fract_x
 _atom_site_fract_y
 _atom_site_fract_z
 _atom_site_occupancy
 _atom_site_charge
Mn  Mn1  1  0.50000000  0.00000000  0.50000000  1.0 0.6469473072
Zn  Zn1  1  0.91777000  0.43290000  0.04068000  1.0 0.8261456319
Zn  Zn2  1  0.08223000  0.56710000  0.95932000  1.0 0.8261456319
H  H1  1  0.04150000  0.22590000  0.25700000  1.0 0.1297635357
H  H2  1  0.95850000  0.77410000  0.74300000  1.0 0.1297635357
H  H3  1  0.14600000  0.12660000  0.36800000  1.0 0.1193863574
H  H4  1  0.85400000  0.87340000  0.63200000  1.0 0.1193863574
H  H5  1  0.38450000  0.27810000  0.21210000  1.0 0.1297635357
H  H6  1  0.61550000  0.72190000  0.78790000  1.0 0.1297635357
H  H7  1  0.28460000  0.37610000  0.11850000  1.0 0.1393112489
H  H8  1  0.71540000  0.62390000  0.88150000  1.0 0.1393112489
H  H9  1  0.40560000  0.04910000  0.21880000  1.0 0.1297635357
H  H10  1  0.59440000  0.95090000  0.78120000  1.0 0.1297635357
H  H11  1  0.55650000  0.90290000  0.21820000  1.0 0.1297635357
H  H12  1  0.44350000  0.09710000  0.78180000  1.0 0.1297635357
H  H13  1  0.81200000  0.70700000  0.42690000  1.0 0.1297635357
H  H14  1  0.18800000  0.29300000  0.57310000  1.0 0.1297635357
H  H15  1  0.81950000  0.71690000  0.56540000  1.0 0.1297635357
H  H16  1  0.18050000  0.28310000  0.43460000  1.0 0.1297635357
H  H17  1  0.60360000  0.67350000  0.35870000  1.0 0.1106157269
H  H18  1  0.39640000  0.32650000  0.64130000  1.0 0.1106157269
H  H19  1  0.68990000  0.57620000  0.24740000  1.0 0.1297635357
H  H20  1  0.31010000  0.42380000  0.75260000  1.0 0.1297635357
H  H21  1  0.91630000  0.76540000  0.12590000  1.0 0.1297635357
H  H22  1  0.08370000  0.23460000  0.87410000  1.0 0.1297635357
H  H23  1  0.81580000  0.85450000  0.23790000  1.0 0.1193863574
H  H24  1  0.18420000  0.14550000  0.76210000  1.0 0.1193863574
H  H25  1  0.82310000  0.40120000  0.91860000  1.0 0.1393112489
H  H26  1  0.17690000  0.59880000  0.08140000  1.0 0.1393112489
H  H27  1  0.70920000  0.30330000  0.92430000  1.0 0.1393112489
H  H28  1  0.29080000  0.69670000  0.07570000  1.0 0.1393112489
H  H29  1  0.68880000  0.16970000  0.18740000  1.0 0.1297635357
H  H30  1  0.31120000  0.83030000  0.81260000  1.0 0.1297635357
H  H31  1  0.78680000  0.27510000  0.16840000  1.0 0.1297635357
H  H32  1  0.21320000  0.72490000  0.83160000  1.0 0.1297635357
H  H33  1  0.73670000  0.86690000  0.04590000  1.0 0.1297635357
H  H34  1  0.26330000  0.13310000  0.95410000  1.0 0.1297635357
H  H35  1  0.34480000  0.24020000  0.97220000  1.0 0.1297635357
H  H36  1  0.65520000  0.75980000  0.02780000  1.0 0.1297635357
H  H37  1  0.56780000  0.36700000  0.43530000  1.0 0.1106157269
H  H38  1  0.43220000  0.63300000  0.56470000  1.0 0.1106157269
H  H39  1  0.64750000  0.20400000  0.50200000  1.0 0.1193863574
H  H40  1  0.35250000  0.79600000  0.49800000  1.0 0.1193863574
H  H41  1  0.67110000  0.06890000  0.44490000  1.0 0.1193863574
H  H42  1  0.32890000  0.93110000  0.55510000  1.0 0.1193863574
H  H43  1  0.61490000  0.09680000  0.32120000  1.0 0.1106157269
H  H44  1  0.38510000  0.90320000  0.67880000  1.0 0.1106157269
H  H45  1  0.53520000  0.25980000  0.25450000  1.0 0.1193863574
H  H46  1  0.46480000  0.74020000  0.74550000  1.0 0.1193863574
H  H47  1  0.51370000  0.47420000  0.24360000  1.0 0.1193863574
H  H48  1  0.48630000  0.52580000  0.75640000  1.0 0.1193863574
H  H49  1  0.40370000  0.44650000  0.43560000  1.0 0.1297635357
H  H50  1  0.59630000  0.55350000  0.56440000  1.0 0.1297635357
H  H51  1  0.38000000  0.55260000  0.35620000  1.0 0.1393112489
H  H52  1  0.62000000  0.44740000  0.64380000  1.0 0.1393112489
C  C1  1  0.08590000  0.36720000  0.11600000  1.0 0.587530417
C  C2  1  0.91410000  0.63280000  0.88400000  1.0 0.587530417
C  C3  1  0.15820000  0.30950000  0.17950000  1.0 -0.011676328
C  C4  1  0.84180000  0.69050000  0.82050000  1.0 -0.011676328
C  C5  1  0.10990000  0.23710000  0.24970000  1.0 -0.1008187243
C  C6  1  0.89010000  0.76290000  0.75030000  1.0 -0.1008187243
C  C7  1  0.17400000  0.17530000  0.31600000  1.0 -0.1475132502
C  C8  1  0.82600000  0.82470000  0.68400000  1.0 -0.1475132502
C  C9  1  0.27710000  0.19690000  0.29300000  1.0 0.0684358233
C  C10  1  0.72290000  0.80310000  0.70700000  1.0 0.0684358233
C  C11  1  0.31480000  0.26680000  0.22370000  1.0 -0.1094567859
C  C12  1  0.68520000  0.73320000  0.77630000  1.0 -0.1094567859
C  C13  1  0.25560000  0.32460000  0.16720000  1.0 -0.0696758985
C  C14  1  0.74440000  0.67540000  0.83280000  1.0 -0.0696758985
C  C15  1  0.34340000  0.13490000  0.35900000  1.0 -0.0696758985
C  C16  1  0.65660000  0.86510000  0.64100000  1.0 -0.0696758985
C  C17  1  0.41910000  0.05350000  0.33990000  1.0 0.1393112489
C  C18  1  0.58090000  0.94650000  0.66010000  1.0 0.1393112489
C  C19  1  0.44250000  0.01980000  0.26180000  1.0 -0.1759790353
C  C20  1  0.55750000  0.98020000  0.73820000  1.0 -0.1759790353
C  C21  1  0.52560000  0.93960000  0.26050000  1.0 -0.1616007334
C  C22  1  0.47440000  0.06040000  0.73950000  1.0 -0.1616007334
C  C23  1  0.55580000  0.92350000  0.33850000  1.0 0.1789594569
C  C24  1  0.44420000  0.07650000  0.66150000  1.0 0.1789594569
C  C25  1  0.64680000  0.84580000  0.36000000  1.0 -0.0778285398
C  C26  1  0.35320000  0.15420000  0.64000000  1.0 -0.0778285398
C  C27  1  0.67060000  0.82830000  0.43760000  1.0 0.1687706911
C  C28  1  0.32940000  0.17170000  0.56240000  1.0 0.1687706911
C  C29  1  0.76470000  0.75130000  0.46010000  1.0 -0.1616007334
C  C30  1  0.23530000  0.24870000  0.53990000  1.0 -0.1616007334
C  C31  1  0.76920000  0.75690000  0.53480000  1.0 -0.1616007334
C  C32  1  0.23080000  0.24310000  0.46520000  1.0 -0.1616007334
C  C33  1  0.67980000  0.83820000  0.56150000  1.0 0.1507155129
C  C34  1  0.32020000  0.16180000  0.43850000  1.0 0.1507155129
C  C35  1  0.70080000  0.78120000  0.30130000  1.0 0.0546965466
C  C36  1  0.29920000  0.21880000  0.69870000  1.0 0.0546965466
C  C37  1  0.66360000  0.69280000  0.31090000  1.0 -0.1302999503
C  C38  1  0.33640000  0.30720000  0.68910000  1.0 -0.1302999503
C  C39  1  0.71780000  0.62990000  0.24650000  1.0 -0.1192659608
C  C40  1  0.28220000  0.37010000  0.75350000  1.0 -0.1192659608
C  C41  1  0.81280000  0.65850000  0.18560000  1.0 -0.011676328
C  C42  1  0.18720000  0.34150000  0.81440000  1.0 -0.011676328
C  C43  1  0.85510000  0.74520000  0.17180000  1.0 -0.1008187243
C  C44  1  0.14490000  0.25480000  0.82820000  1.0 -0.1008187243
C  C45  1  0.78900000  0.79940000  0.23980000  1.0 -0.1192659608
C  C46  1  0.21100000  0.20060000  0.76020000  1.0 -0.1192659608
C  C47  1  0.88070000  0.59170000  0.11120000  1.0 0.5821019241
C  C48  1  0.11930000  0.40830000  0.88880000  1.0 0.5821019241
C  C49  1  0.79680000  0.35430000  0.97260000  1.0 -0.0528002924
C  C50  1  0.20320000  0.64570000  0.02740000  1.0 -0.0528002924
C  C51  1  0.72870000  0.28840000  0.97600000  1.0 -0.1759790353
C  C52  1  0.27130000  0.71160000  0.02400000  1.0 -0.1759790353
C  C53  1  0.68910000  0.20850000  0.04280000  1.0 0.2580075094
C  C54  1  0.31090000  0.79150000  0.95720000  1.0 0.2580075094
C  C55  1  0.71500000  0.21190000  0.13060000  1.0 -0.253312575
C  C56  1  0.28500000  0.78810000  0.86940000  1.0 -0.253312575
C  C57  1  0.77920000  0.28280000  0.11320000  1.0 0.099131582
C  C58  1  0.22080000  0.71720000  0.88680000  1.0 0.099131582
C  C59  1  0.67300000  0.04770000  0.04750000  1.0 0.3195424356
C  C60  1  0.32700000  0.95230000  0.95250000  1.0 0.3195424356
C  C61  1  0.53300000  0.19800000  0.01690000  1.0 0.3814076313
C  C62  1  0.46700000  0.80200000  0.98310000  1.0 0.3814076313
C  C63  1  0.67040000  0.89390000  0.03330000  1.0 -0.0778285398
C  C64  1  0.32960000  0.10610000  0.96670000  1.0 -0.0778285398
C  C65  1  0.63100000  0.99200000  0.02880000  1.0 -0.0924534205
C  C66  1  0.36900000  0.00800000  0.97120000  1.0 -0.0924534205
C  C67  1  0.52280000  0.03610000  0.00720000  1.0 0.0435090882
C  C68  1  0.47720000  0.96390000  0.99280000  1.0 0.0435090882
C  C69  1  0.47800000  0.13840000  0.00200000  1.0 -0.0924534205
C  C70  1  0.52200000  0.86160000  0.99800000  1.0 -0.0924534205
C  C71  1  0.37820000  0.17190000  0.97910000  1.0 -0.1094567859
C  C72  1  0.62180000  0.82810000  0.02090000  1.0 -0.1094567859
C  C73  1  0.57700000  0.31300000  0.41200000  1.0 -0.1395405999
C  C74  1  0.42300000  0.68700000  0.58800000  1.0 -0.1395405999
C  C75  1  0.62500000  0.21500000  0.45200000  1.0 -0.0778285398
C  C76  1  0.37500000  0.78500000  0.54800000  1.0 -0.0778285398
C  C77  1  0.63910000  0.13430000  0.41820000  1.0 -0.1302999503
C  C78  1  0.36090000  0.86570000  0.58180000  1.0 -0.1302999503
C  C79  1  0.60500000  0.15100000  0.34400000  1.0 -0.1008187243
C  C80  1  0.39500000  0.84900000  0.65600000  1.0 -0.1008187243
C  C81  1  0.55800000  0.24900000  0.30400000  1.0 -0.1395405999
C  C82  1  0.44200000  0.75100000  0.69600000  1.0 -0.1395405999
C  C83  1  0.54400000  0.33000000  0.33800000  1.0 0.1193863574
C  C84  1  0.45600000  0.67000000  0.66200000  1.0 0.1193863574
C  C85  1  0.49600000  0.43800000  0.30400000  1.0 -0.0778285398
C  C86  1  0.50400000  0.56200000  0.69600000  1.0 -0.0778285398
C  C87  1  0.42300000  0.47800000  0.37000000  1.0 -0.3372691444
C  C88  1  0.57700000  0.52200000  0.63000000  1.0 -0.3372691444
N  N1  1  0.49450000  0.98940000  0.38810000  1.0 -0.3645312658
N  N2  1  0.50550000  0.01060000  0.61190000  1.0 -0.3658705226
N  N3  1  0.62480000  0.88810000  0.49540000  1.0 -0.3527787946
N  N4  1  0.37520000  0.11190000  0.50460000  1.0 -0.3527787946
N  N5  1  0.83040000  0.34990000  0.06210000  1.0 -0.1094567859
N  N6  1  0.16960000  0.65010000  0.93790000  1.0 -0.1094567859
N  N7  1  0.63550000  0.14710000  0.04060000  1.0 -0.1616007334
N  N8  1  0.36450000  0.85290000  0.95940000  1.0 -0.1616007334
O  O1  1  0.00150000  0.34110000  0.12510000  1.0 -0.4917565159
O  O2  1  0.99850000  0.65890000  0.87490000  1.0 -0.4917565159
O  O3  1  0.13160000  0.44550000  0.05850000  1.0 -0.5782868437
O  O4  1  0.86840000  0.55450000  0.94150000  1.0 -0.5782868437
O  O5  1  0.96690000  0.62450000  0.06000000  1.0 -0.5550195149
O  O6  1  0.03310000  0.37550000  0.94000000  1.0 -0.5550195149
O  O7  1  0.83820000  0.51620000  0.12600000  1.0 -0.5320813528
O  O8  1  0.16180000  0.48380000  0.87400000  1.0 -0.5320813528
O  O9  1  0.76300000  0.02120000  0.06730000  1.0 -0.4167900405
O  O10  1  0.23700000  0.97880000  0.93270000  1.0 -0.4167900405
O  O11  1  0.49670000  0.29180000  0.01160000  1.0 -0.4443265668
O  O12  1  0.50330000  0.70820000  0.98840000  1.0 -0.4443265668
