# DDEC6 charges by PACMAN v1.1 (https://github.com/mtap-research/PACMAN-charge/)
data_XINQAQ_ASR_pacman
_symmetry_space_group_name_H-M   'P 1'
_cell_length_a   26.97800000
_cell_length_b   26.97800000
_cell_length_c   26.97800000
_cell_angle_alpha   164.72000000
_cell_angle_beta   123.29100000
_cell_angle_gamma   59.10030000
_symmetry_Int_Tables_number   1
_chemical_formula_structural   ZnH14C23NO4
_chemical_formula_sum   'Zn4 H56 C92 N4 O16'
_cell_volume   4313.99067273
_cell_formula_units_Z   4
loop_
 _symmetry_equiv_pos_site_id
 _symmetry_equiv_pos_as_xyz
  1  'x, y, z'
loop_
 _atom_site_type_symbol
 _atom_site_label
 _atom_site_symmetry_multiplicity
 _atom_site_fract_x
 _atom_site_fract_y
 _atom_site_fract_z
 _atom_site_occupancy
 _atom_site_charge
Zn  Zn1  1  0.98584000  0.29041000  0.30457000  1.0 0.9166452613
Zn  Zn2  1  0.51416000  0.81873000  0.30457000  1.0 0.9166452613
Zn  Zn3  1  0.48584000  0.18127000  0.69543000  1.0 0.9166452613
Zn  Zn4  1  0.01416000  0.70959000  0.69543000  1.0 0.9166452613
H  H1  1  0.06893000  0.90637000  0.05662000  1.0 0.1083644547
H  H2  1  0.43107000  0.48769000  0.83744000  1.0 0.1083644547
H  H3  1  0.34975000  0.51231000  0.94338000  1.0 0.1083644547
H  H4  1  0.15025000  0.09363000  0.16256000  1.0 0.1083644547
H  H5  1  0.93107000  0.09363000  0.94338000  1.0 0.1083644547
H  H6  1  0.56893000  0.51231000  0.16256000  1.0 0.1083644547
H  H7  1  0.65025000  0.48769000  0.05662000  1.0 0.1083644547
H  H8  1  0.84975000  0.90637000  0.83744000  1.0 0.1083644547
H  H9  1  0.11143000  0.93450000  0.19117000  1.0 0.1083644547
H  H10  1  0.38857000  0.57974000  0.82307000  1.0 0.1083644547
H  H11  1  0.24333000  0.42026000  0.80883000  1.0 0.1083644547
H  H12  1  0.25667000  0.06550000  0.17693000  1.0 0.1083644547
H  H13  1  0.88857000  0.06550000  0.80883000  1.0 0.1083644547
H  H14  1  0.61143000  0.42026000  0.17693000  1.0 0.1083644547
H  H15  1  0.75667000  0.57974000  0.19117000  1.0 0.1083644547
H  H16  1  0.74333000  0.93450000  0.82307000  1.0 0.1083644547
H  H17  1  0.13936000  0.33728000  0.62970000  1.0 0.1083644547
H  H18  1  0.36064000  0.99034000  0.19792000  1.0 0.1083644547
H  H19  1  0.20758000  0.00966000  0.37030000  1.0 0.1083644547
H  H20  1  0.29242000  0.66272000  0.80208000  1.0 0.1083644547
H  H21  1  0.86064000  0.66272000  0.37030000  1.0 0.1083644547
H  H22  1  0.63936000  0.00966000  0.80208000  1.0 0.1083644547
H  H23  1  0.79242000  0.99034000  0.62970000  1.0 0.1083644547
H  H24  1  0.70758000  0.33728000  0.19792000  1.0 0.1083644547
H  H25  1  0.09753000  0.30735000  0.49370000  1.0 0.1083644547
H  H26  1  0.40247000  0.89617000  0.20982000  1.0 0.1083644547
H  H27  1  0.31365000  0.10383000  0.50630000  1.0 0.1083644547
H  H28  1  0.18635000  0.69265000  0.79018000  1.0 0.1083644547
H  H29  1  0.90247000  0.69265000  0.50630000  1.0 0.1083644547
H  H30  1  0.59753000  0.10383000  0.79018000  1.0 0.1083644547
H  H31  1  0.68635000  0.89617000  0.49370000  1.0 0.1083644547
H  H32  1  0.81365000  0.30735000  0.20982000  1.0 0.1083644547
H  H33  1  0.15382000  0.33935000  0.75369000  1.0 0.1083644547
H  H34  1  0.34618000  0.09987000  0.18553000  1.0 0.1083644547
H  H35  1  0.08566000  0.90013000  0.24631000  1.0 0.1083644547
H  H36  1  0.41434000  0.66065000  0.81447000  1.0 0.1083644547
H  H37  1  0.84618000  0.66065000  0.24631000  1.0 0.1083644547
H  H38  1  0.65382000  0.90013000  0.81447000  1.0 0.1083644547
H  H39  1  0.91434000  0.09987000  0.75369000  1.0 0.1083644547
H  H40  1  0.58566000  0.33935000  0.18553000  1.0 0.1083644547
H  H41  1  0.10275000  0.28812000  0.75465000  1.0 0.0997015115
H  H42  1  0.39725000  0.15190000  0.18537000  1.0 0.0997015115
H  H43  1  0.03347000  0.84810000  0.24535000  1.0 0.0997015115
H  H44  1  0.46653000  0.71188000  0.81463000  1.0 0.0997015115
H  H45  1  0.89725000  0.71188000  0.24535000  1.0 0.0997015115
H  H46  1  0.60275000  0.84810000  0.81463000  1.0 0.0997015115
H  H47  1  0.96653000  0.15190000  0.75465000  1.0 0.0997015115
H  H48  1  0.53347000  0.28812000  0.18537000  1.0 0.0997015115
H  H49  1  0.03167000  0.22219000  0.70232000  1.0 0.093319577
H  H50  1  0.46833000  0.17065000  0.19052000  1.0 0.093319577
H  H51  1  0.01987000  0.82935000  0.29768000  1.0 0.093319577
H  H52  1  0.48013000  0.77781000  0.80948000  1.0 0.093319577
H  H53  1  0.96833000  0.77781000  0.29768000  1.0 0.093319577
H  H54  1  0.53167000  0.82935000  0.80948000  1.0 0.093319577
H  H55  1  0.98013000  0.17065000  0.70232000  1.0 0.093319577
H  H56  1  0.51987000  0.22219000  0.19052000  1.0 0.093319577
C  C1  1  0.04258000  0.57771000  0.67479000  1.0 0.5951031622
C  C2  1  0.45742000  0.13221000  0.53513000  1.0 0.5951031622
C  C3  1  0.40292000  0.86779000  0.32521000  1.0 0.5951031622
C  C4  1  0.09708000  0.42229000  0.46487000  1.0 0.5951031622
C  C5  1  0.95742000  0.42229000  0.32521000  1.0 0.5951031622
C  C6  1  0.54258000  0.86779000  0.46487000  1.0 0.5934953865
C  C7  1  0.59708000  0.13221000  0.67479000  1.0 0.5951031622
C  C8  1  0.90292000  0.57771000  0.53513000  1.0 0.5951031622
C  C9  1  0.08340000  0.78049000  0.96109000  1.0 -0.0611589984
C  C10  1  0.41660000  0.37769000  0.69709000  1.0 -0.0611589984
C  C11  1  0.31940000  0.62231000  0.03891000  1.0 -0.0611589984
C  C12  1  0.18060000  0.21951000  0.30291000  1.0 -0.0611589984
C  C13  1  0.91660000  0.21951000  0.03891000  1.0 -0.0611589984
C  C14  1  0.58340000  0.62231000  0.30291000  1.0 -0.0611589984
C  C15  1  0.68060000  0.37769000  0.96109000  1.0 -0.0611589984
C  C16  1  0.81940000  0.78049000  0.69709000  1.0 -0.0611589984
C  C17  1  0.10792000  0.79712000  0.03842000  1.0 -0.1874984095
C  C18  1  0.39208000  0.43050000  0.68920000  1.0 -0.1874984095
C  C19  1  0.25870000  0.56950000  0.96158000  1.0 -0.1874984095
C  C20  1  0.24130000  0.20288000  0.31080000  1.0 -0.1874984095
C  C21  1  0.89208000  0.20288000  0.96158000  1.0 -0.1874984095
C  C22  1  0.60792000  0.56950000  0.31080000  1.0 -0.1874984095
C  C23  1  0.74130000  0.43050000  0.03842000  1.0 -0.1874984095
C  C24  1  0.75870000  0.79712000  0.68920000  1.0 -0.1874984095
C  C25  1  0.12334000  0.46113000  0.72251000  1.0 -0.1874984095
C  C26  1  0.37666000  0.09917000  0.33779000  1.0 -0.1874984095
C  C27  1  0.23862000  0.90083000  0.27749000  1.0 -0.1874984095
C  C28  1  0.26138000  0.53887000  0.66221000  1.0 -0.1874984095
C  C29  1  0.87666000  0.53887000  0.27749000  1.0 -0.1874984095
C  C30  1  0.62334000  0.90083000  0.66221000  1.0 -0.1874984095
C  C31  1  0.76138000  0.09917000  0.72251000  1.0 -0.1874984095
C  C32  1  0.73862000  0.46113000  0.33779000  1.0 -0.1874984095
C  C33  1  0.09958000  0.44471000  0.64559000  1.0 -0.0611589984
C  C34  1  0.40042000  0.04601000  0.34513000  1.0 -0.0611589984
C  C35  1  0.29912000  0.95399000  0.35441000  1.0 -0.0611589984
C  C36  1  0.20088000  0.55529000  0.65487000  1.0 -0.0611589984
C  C37  1  0.90042000  0.55529000  0.35441000  1.0 -0.0611589984
C  C38  1  0.59958000  0.95399000  0.65487000  1.0 -0.0611589984
C  C39  1  0.70088000  0.04601000  0.64559000  1.0 -0.0611589984
C  C40  1  0.79912000  0.44471000  0.34513000  1.0 -0.0611589984
C  C41  1  0.12865000  0.63801000  0.92020000  1.0 0.20475589
C  C42  1  0.37135000  0.29155000  0.50936000  1.0 0.20475589
C  C43  1  0.21781000  0.70845000  0.07980000  1.0 0.20475589
C  C44  1  0.28219000  0.36199000  0.49064000  1.0 0.20475589
C  C45  1  0.87135000  0.36199000  0.07980000  1.0 0.20475589
C  C46  1  0.62865000  0.70845000  0.49064000  1.0 0.20475589
C  C47  1  0.78219000  0.29155000  0.92020000  1.0 0.20475589
C  C48  1  0.71781000  0.63801000  0.50936000  1.0 0.20475589
C  C49  1  0.12790000  0.45143000  0.86211000  1.0 -0.1698646221
C  C50  1  0.37210000  0.23421000  0.32353000  1.0 -0.1698646221
C  C51  1  0.08932000  0.76579000  0.13789000  1.0 -0.1698646221
C  C52  1  0.41068000  0.54857000  0.67647000  1.0 -0.1698646221
C  C53  1  0.87210000  0.54857000  0.13789000  1.0 -0.1698646221
C  C54  1  0.62790000  0.76579000  0.67647000  1.0 -0.1698646221
C  C55  1  0.91068000  0.23421000  0.86211000  1.0 -0.1698646221
C  C56  1  0.58932000  0.45143000  0.32353000  1.0 -0.1698646221
C  C57  1  0.09830000  0.42170000  0.86172000  1.0 -0.1237900473
C  C58  1  0.40170000  0.26342000  0.32340000  1.0 -0.1237900473
C  C59  1  0.05998000  0.73658000  0.13828000  1.0 -0.1237900473
C  C60  1  0.44002000  0.57830000  0.67660000  1.0 -0.1237900473
C  C61  1  0.90170000  0.57830000  0.13828000  1.0 -0.1237900473
C  C62  1  0.59830000  0.73658000  0.67660000  1.0 -0.1237900473
C  C63  1  0.94002000  0.26342000  0.86172000  1.0 -0.1237900473
C  C64  1  0.55998000  0.42170000  0.32340000  1.0 -0.1237900473
C  C65  1  0.08003000  0.60472000  0.76469000  1.0 -0.0952919295
C  C66  1  0.41997000  0.18466000  0.52469000  1.0 -0.0952919295
C  C67  1  0.34003000  0.81534000  0.23531000  1.0 -0.0952919295
C  C68  1  0.15997000  0.39528000  0.47531000  1.0 -0.0952919295
C  C69  1  0.91997000  0.39528000  0.23531000  1.0 -0.0952919295
C  C70  1  0.58003000  0.81534000  0.47531000  1.0 -0.0952919295
C  C71  1  0.65997000  0.18466000  0.76469000  1.0 -0.0952919295
C  C72  1  0.84003000  0.60472000  0.52469000  1.0 -0.0952919295
C  C73  1  0.01851000  0.34460000  0.83363000  1.0 -0.134404042
C  C74  1  0.48149000  0.31512000  0.32609000  1.0 -0.134404042
C  C75  1  0.01097000  0.68488000  0.16637000  1.0 -0.134404042
C  C76  1  0.48903000  0.65540000  0.67391000  1.0 -0.134404042
C  C77  1  0.98149000  0.65540000  0.16637000  1.0 -0.134404042
C  C78  1  0.51851000  0.68488000  0.67391000  1.0 -0.134404042
C  C79  1  0.98903000  0.31512000  0.83363000  1.0 -0.134404042
C  C80  1  0.51097000  0.34460000  0.32609000  1.0 -0.134404042
C  C81  1  0.02980000  0.52980000  0.00000000  1.0 0.078307201
C  C82  1  0.47020000  0.47020000  0.50000000  1.0 0.078307201
C  C83  1  0.97020000  0.47020000  0.00000000  1.0 0.078307201
C  C84  1  0.52980000  0.52980000  0.50000000  1.0 0.078307201
C  C85  1  0.12364000  0.62364000  0.00000000  1.0 0.1865613226
C  C86  1  0.37636000  0.37636000  0.50000000  1.0 0.1865613226
C  C87  1  0.87636000  0.37636000  0.00000000  1.0 0.1865613226
C  C88  1  0.62364000  0.62364000  0.50000000  1.0 0.1865613226
C  C89  1  0.06408000  0.56408000  0.00000000  1.0 0.0711340781
C  C90  1  0.43592000  0.43592000  0.50000000  1.0 0.0711340781
C  C91  1  0.93592000  0.43592000  0.00000000  1.0 0.0711340781
C  C92  1  0.56408000  0.56408000  0.50000000  1.0 0.0711340781
N  N1  1  0.15564000  0.65564000  0.00000000  1.0 -0.1964310009
N  N2  1  0.34436000  0.34436000  0.50000000  1.0 -0.1964310009
N  N3  1  0.84436000  0.34436000  0.00000000  1.0 -0.1964310009
N  N4  1  0.65564000  0.65564000  0.50000000  1.0 -0.1964310009
O  O1  1  0.01963000  0.41196000  0.49215000  1.0 -0.5396680359
O  O2  1  0.48037000  0.97252000  0.39233000  1.0 -0.5396680359
O  O3  1  0.41981000  0.02748000  0.50785000  1.0 -0.5396680359
O  O4  1  0.08019000  0.58804000  0.60767000  1.0 -0.5396680359
O  O5  1  0.98037000  0.58804000  0.50785000  1.0 -0.5396680359
O  O6  1  0.51963000  0.02748000  0.60767000  1.0 -0.5396680359
O  O7  1  0.58019000  0.97252000  0.49215000  1.0 -0.5396680359
O  O8  1  0.91981000  0.41196000  0.39233000  1.0 -0.5396680359
O  O9  1  0.03624000  0.71640000  0.77618000  1.0 -0.5022763808
O  O10  1  0.46376000  0.23994000  0.68016000  1.0 -0.5022763808
O  O11  1  0.44022000  0.76006000  0.22382000  1.0 -0.5022763808
O  O12  1  0.05978000  0.28360000  0.31984000  1.0 -0.5022763808
O  O13  1  0.96376000  0.28360000  0.22382000  1.0 -0.5022763808
O  O14  1  0.53624000  0.76006000  0.31984000  1.0 -0.5022763808
O  O15  1  0.55978000  0.23994000  0.77618000  1.0 -0.5022763808
O  O16  1  0.94022000  0.71640000  0.68016000  1.0 -0.5022763808
