# DDEC6 charges by PACMAN v1.1 (https://github.com/mtap-research/PACMAN-charge/)
data_XINYAW_FSR_pacman
_symmetry_space_group_name_H-M   'P 1'
_cell_length_a   16.75870000
_cell_length_b   16.75870000
_cell_length_c   16.75870000
_cell_angle_alpha   105.79000000
_cell_angle_beta   105.79000000
_cell_angle_gamma   117.11500000
_symmetry_Int_Tables_number   1
_chemical_formula_structural   CuH26C28(NO)6
_chemical_formula_sum   'Cu4 H104 C112 N24 O24'
_cell_volume   3574.27878508
_cell_formula_units_Z   4
loop_
 _symmetry_equiv_pos_site_id
 _symmetry_equiv_pos_as_xyz
  1  'x, y, z'
loop_
 _atom_site_type_symbol
 _atom_site_label
 _atom_site_symmetry_multiplicity
 _atom_site_fract_x
 _atom_site_fract_y
 _atom_site_fract_z
 _atom_site_occupancy
 _atom_site_charge
Cu  Cu1  1  0.12500000  0.37500000  0.25000000  1.0 0.764926049
Cu  Cu2  1  0.12500000  0.87500000  0.75000000  1.0 0.764926049
Cu  Cu3  1  0.12500000  0.87500000  0.25000000  1.0 0.764926049
Cu  Cu4  1  0.62500000  0.87500000  0.75000000  1.0 0.764926049
H  H1  1  0.50890000  0.33970000  0.44380000  1.0 0.1287053964
H  H2  1  0.89590000  0.06510000  0.55620000  1.0 0.1287053964
H  H3  1  0.31510000  0.25890000  0.66920000  1.0 0.1287053964
H  H4  1  0.58970000  0.64590000  0.33080000  1.0 0.1287053964
H  H5  1  0.74110000  0.41030000  0.05620000  1.0 0.1287053964
H  H6  1  0.35410000  0.68490000  0.94380000  1.0 0.1287053964
H  H7  1  0.93490000  0.49110000  0.83080000  1.0 0.1287053964
H  H8  1  0.66030000  0.10410000  0.16920000  1.0 0.1287053964
H  H9  1  0.40690000  0.37890000  0.18100000  1.0 0.1287053964
H  H10  1  0.19790000  0.22590000  0.81900000  1.0 0.1287053964
H  H11  1  0.47590000  0.15690000  0.52800000  1.0 0.1287053964
H  H12  1  0.62890000  0.94790000  0.47200000  1.0 0.1287053964
H  H13  1  0.84310000  0.37110000  0.31900000  1.0 0.1287053964
H  H14  1  0.05210000  0.52410000  0.68100000  1.0 0.1287053964
H  H15  1  0.77410000  0.59310000  0.97200000  1.0 0.1287053964
H  H16  1  0.62110000  0.80210000  0.02800000  1.0 0.1287053964
H  H17  1  0.55130000  0.38170000  0.23280000  1.0 0.1224039747
H  H18  1  0.14890000  0.31850000  0.76720000  1.0 0.1224039747
H  H19  1  0.56850000  0.30130000  0.66960000  1.0 0.1224039747
H  H20  1  0.63170000  0.89890000  0.33040000  1.0 0.1224039747
H  H21  1  0.69870000  0.36830000  0.26720000  1.0 0.1224039747
H  H22  1  0.10110000  0.43150000  0.73280000  1.0 0.1224039747
H  H23  1  0.68150000  0.44870000  0.83040000  1.0 0.1224039747
H  H24  1  0.61830000  0.85110000  0.16960000  1.0 0.1224039747
H  H25  1  0.59990000  0.36000000  0.36290000  1.0 0.1224039747
H  H26  1  0.99710000  0.23700000  0.63710000  1.0 0.1224039747
H  H27  1  0.48700000  0.34990000  0.73990000  1.0 0.1224039747
H  H28  1  0.61000000  0.74710000  0.26010000  1.0 0.1224039747
H  H29  1  0.65010000  0.39000000  0.13710000  1.0 0.1224039747
H  H30  1  0.25290000  0.51300000  0.86290000  1.0 0.1224039747
H  H31  1  0.76300000  0.40010000  0.76010000  1.0 0.1224039747
H  H32  1  0.64000000  0.00290000  0.23990000  1.0 0.1224039747
H  H33  1  0.45700000  0.67350000  0.56790000  1.0 0.1287053964
H  H34  1  0.10560000  0.88910000  0.43210000  1.0 0.1287053964
H  H35  1  0.13910000  0.20700000  0.28350000  1.0 0.1287053964
H  H36  1  0.92350000  0.85560000  0.71650000  1.0 0.1287053964
H  H37  1  0.79300000  0.07650000  0.93210000  1.0 0.1287053964
H  H38  1  0.14440000  0.86090000  0.06790000  1.0 0.1287053964
H  H39  1  0.11090000  0.54300000  0.21650000  1.0 0.1287053964
H  H40  1  0.32650000  0.89440000  0.78350000  1.0 0.1287053964
H  H41  1  0.42900000  0.78090000  0.79050000  1.0 0.1354744761
H  H42  1  0.99040000  0.63850000  0.20950000  1.0 0.1354744761
H  H43  1  0.88850000  0.17900000  0.14810000  1.0 0.1354744761
H  H44  1  0.03090000  0.74040000  0.85190000  1.0 0.1354744761
H  H45  1  0.82100000  0.96910000  0.70950000  1.0 0.1354744761
H  H46  1  0.25960000  0.11150000  0.29050000  1.0 0.1354744761
H  H47  1  0.36150000  0.57100000  0.35190000  1.0 0.1354744761
H  H48  1  0.21910000  0.00960000  0.64810000  1.0 0.1354744761
H  H49  1  0.27120000  0.61800000  0.67980000  1.0 0.1287053964
H  H50  1  0.93820000  0.59140000  0.32020000  1.0 0.1287053964
H  H51  1  0.84140000  0.02120000  0.15320000  1.0 0.1287053964
H  H52  1  0.86800000  0.68820000  0.84680000  1.0 0.1287053964
H  H53  1  0.97880000  0.13200000  0.82020000  1.0 0.1287053964
H  H54  1  0.31180000  0.15860000  0.17980000  1.0 0.1287053964
H  H55  1  0.40860000  0.72880000  0.34680000  1.0 0.1287053964
H  H56  1  0.38200000  0.06180000  0.65320000  1.0 0.1287053964
H  H57  1  0.22620000  0.42430000  0.57470000  1.0 0.1026419802
H  H58  1  0.84960000  0.65150000  0.42530000  1.0 0.1026419802
H  H59  1  0.90150000  0.97620000  0.30190000  1.0 0.1026419802
H  H60  1  0.67430000  0.59960000  0.69810000  1.0 0.1026419802
H  H61  1  0.02380000  0.32570000  0.92530000  1.0 0.1026419802
H  H62  1  0.40040000  0.09850000  0.07470000  1.0 0.1026419802
H  H63  1  0.34850000  0.77380000  0.19810000  1.0 0.1026419802
H  H64  1  0.57570000  0.15040000  0.80190000  1.0 0.1026419802
H  H65  1  0.20130000  0.36280000  0.47190000  1.0 0.1287053964
H  H66  1  0.89090000  0.72940000  0.52810000  1.0 0.1287053964
H  H67  1  0.97940000  0.95130000  0.33850000  1.0 0.1287053964
H  H68  1  0.61280000  0.64090000  0.66150000  1.0 0.1287053964
H  H69  1  0.04870000  0.38720000  0.02810000  1.0 0.1287053964
H  H70  1  0.35910000  0.02060000  0.97190000  1.0 0.1287053964
H  H71  1  0.27060000  0.79870000  0.16150000  1.0 0.1287053964
H  H72  1  0.63720000  0.10910000  0.83850000  1.0 0.1287053964
H  H73  1  0.28600000  0.51300000  0.46180000  1.0 0.1287053964
H  H74  1  0.05120000  0.82420000  0.53820000  1.0 0.1287053964
H  H75  1  0.07420000  0.03600000  0.27300000  1.0 0.1287053964
H  H76  1  0.76300000  0.80120000  0.72700000  1.0 0.1287053964
H  H77  1  0.96400000  0.23700000  0.03820000  1.0 0.1287053964
H  H78  1  0.19880000  0.92580000  0.96180000  1.0 0.1287053964
H  H79  1  0.17580000  0.71400000  0.22700000  1.0 0.1287053964
H  H80  1  0.48700000  0.94880000  0.77300000  1.0 0.1287053964
H  H81  1  0.19890000  0.50360000  0.48570000  1.0 0.1287053964
H  H82  1  0.01790000  0.71320000  0.51430000  1.0 0.1287053964
H  H83  1  0.96320000  0.94890000  0.19530000  1.0 0.1287053964
H  H84  1  0.75360000  0.76790000  0.80470000  1.0 0.1287053964
H  H85  1  0.05110000  0.24640000  0.01430000  1.0 0.1287053964
H  H86  1  0.23210000  0.03680000  0.98570000  1.0 0.1287053964
H  H87  1  0.28680000  0.80110000  0.30470000  1.0 0.1287053964
H  H88  1  0.49640000  0.98210000  0.69530000  1.0 0.1287053964
H  H89  1  0.33520000  0.37570000  0.57950000  1.0 0.0928989863
H  H90  1  0.79620000  0.75570000  0.42050000  1.0 0.0928989863
H  H91  1  0.00570000  0.08520000  0.45950000  1.0 0.0928989863
H  H92  1  0.62570000  0.54620000  0.54050000  1.0 0.0928989863
H  H93  1  0.91480000  0.37430000  0.92050000  1.0 0.0928989863
H  H94  1  0.45380000  0.99430000  0.07950000  1.0 0.0928989863
H  H95  1  0.24430000  0.66480000  0.04050000  1.0 0.0928989863
H  H96  1  0.62430000  0.20380000  0.95950000  1.0 0.0928989863
H  H97  1  0.39840000  0.49380000  0.62320000  1.0 0.0928989863
H  H98  1  0.87060000  0.77520000  0.37680000  1.0 0.0928989863
H  H99  1  0.02520000  0.14840000  0.40460000  1.0 0.0928989863
H  H100  1  0.74380000  0.62060000  0.59540000  1.0 0.0928989863
H  H101  1  0.85160000  0.25620000  0.87680000  1.0 0.0928989863
H  H102  1  0.37940000  0.97480000  0.12320000  1.0 0.0928989863
H  H103  1  0.22480000  0.60160000  0.09540000  1.0 0.0928989863
H  H104  1  0.50620000  0.12940000  0.90460000  1.0 0.0928989863
C  C1  1  0.35110000  0.34160000  0.42510000  1.0 0.457817751
C  C2  1  0.91650000  0.92600000  0.57490000  1.0 0.457817751
C  C3  1  0.17600000  0.10110000  0.50950000  1.0 0.457817751
C  C4  1  0.59160000  0.66650000  0.49050000  1.0 0.457817751
C  C5  1  0.89890000  0.40840000  0.07490000  1.0 0.457817751
C  C6  1  0.33350000  0.82400000  0.92510000  1.0 0.457817751
C  C7  1  0.07400000  0.64890000  0.99050000  1.0 0.457817751
C  C8  1  0.65840000  0.08350000  0.00950000  1.0 0.457817751
C  C9  1  0.27740000  0.35870000  0.24790000  1.0 0.5466266601
C  C10  1  0.11080000  0.02950000  0.75210000  1.0 0.5466266601
C  C11  1  0.27950000  0.02740000  0.41870000  1.0 0.5466266601
C  C12  1  0.60870000  0.86080000  0.58130000  1.0 0.5466266601
C  C13  1  0.97260000  0.39130000  0.25210000  1.0 0.5466266601
C  C14  1  0.13920000  0.72050000  0.74790000  1.0 0.5466266601
C  C15  1  0.97050000  0.72260000  0.08130000  1.0 0.5466266601
C  C16  1  0.64130000  0.88920000  0.91870000  1.0 0.5466266601
C  C17  1  0.40490000  0.35220000  0.36530000  1.0 0.0055416176
C  C18  1  0.98690000  0.03960000  0.63470000  1.0 0.0055416176
C  C19  1  0.28960000  0.15490000  0.55270000  1.0 0.0055416176
C  C20  1  0.60220000  0.73690000  0.44730000  1.0 0.0055416176
C  C21  1  0.84510000  0.39780000  0.13470000  1.0 0.0055416176
C  C22  1  0.26310000  0.71040000  0.86530000  1.0 0.0055416176
C  C23  1  0.96040000  0.59510000  0.94730000  1.0 0.0055416176
C  C24  1  0.64780000  0.01310000  0.05270000  1.0 0.0055416176
C  C25  1  0.37190000  0.36080000  0.28430000  1.0 -0.0295800194
C  C26  1  0.07650000  0.08760000  0.71570000  1.0 -0.0295800194
C  C27  1  0.33760000  0.12190000  0.51110000  1.0 -0.0295800194
C  C28  1  0.61080000  0.82650000  0.48890000  1.0 -0.0295800194
C  C29  1  0.87810000  0.38920000  0.21570000  1.0 -0.0295800194
C  C30  1  0.17350000  0.66240000  0.78430000  1.0 -0.0295800194
C  C31  1  0.91240000  0.62810000  0.98890000  1.0 -0.0295800194
C  C32  1  0.63920000  0.92350000  0.01110000  1.0 -0.0295800194
C  C33  1  0.48890000  0.34940000  0.39190000  1.0 -0.1178295211
C  C34  1  0.95750000  0.09700000  0.60810000  1.0 -0.1178295211
C  C35  1  0.34700000  0.23890000  0.63950000  1.0 -0.1178295211
C  C36  1  0.59940000  0.70750000  0.36050000  1.0 -0.1178295211
C  C37  1  0.76110000  0.40060000  0.10810000  1.0 -0.1178295211
C  C38  1  0.29250000  0.65300000  0.89190000  1.0 -0.1178295211
C  C39  1  0.90300000  0.51110000  0.86050000  1.0 -0.1178295211
C  C40  1  0.65060000  0.04250000  0.13950000  1.0 -0.1178295211
C  C41  1  0.42760000  0.37200000  0.23460000  1.0 -0.0992761747
C  C42  1  0.13740000  0.19300000  0.76540000  1.0 -0.0992761747
C  C43  1  0.44300000  0.17760000  0.55560000  1.0 -0.0992761747
C  C44  1  0.62200000  0.88740000  0.44440000  1.0 -0.0992761747
C  C45  1  0.82240000  0.37800000  0.26540000  1.0 -0.0992761747
C  C46  1  0.11260000  0.55700000  0.73460000  1.0 -0.0992761747
C  C47  1  0.80700000  0.57240000  0.94440000  1.0 -0.0992761747
C  C48  1  0.62800000  0.86260000  0.05560000  1.0 -0.0992761747
C  C49  1  0.51340000  0.37280000  0.26520000  1.0 -0.1125654922
C  C50  1  0.10760000  0.24820000  0.73480000  1.0 -0.1125654922
C  C51  1  0.49820000  0.26340000  0.64060000  1.0 -0.1125654922
C  C52  1  0.62280000  0.85760000  0.35940000  1.0 -0.1125654922
C  C53  1  0.73660000  0.37720000  0.23480000  1.0 -0.1125654922
C  C54  1  0.14240000  0.50180000  0.76520000  1.0 -0.1125654922
C  C55  1  0.75180000  0.48660000  0.85940000  1.0 -0.1125654922
C  C56  1  0.62720000  0.89240000  0.14060000  1.0 -0.1125654922
C  C57  1  0.54270000  0.36060000  0.34310000  1.0 -0.0992761747
C  C58  1  0.01750000  0.19960000  0.65690000  1.0 -0.0992761747
C  C59  1  0.44960000  0.29270000  0.68210000  1.0 -0.0992761747
C  C60  1  0.61060000  0.76750000  0.31790000  1.0 -0.0992761747
C  C61  1  0.70730000  0.38940000  0.15690000  1.0 -0.0992761747
C  C62  1  0.23250000  0.55040000  0.84310000  1.0 -0.0992761747
C  C63  1  0.80040000  0.45730000  0.81790000  1.0 -0.0992761747
C  C64  1  0.63940000  0.98250000  0.18210000  1.0 -0.0992761747
C  C65  1  0.43120000  0.68030000  0.61010000  1.0 0.1139176712
C  C66  1  0.07020000  0.82110000  0.38990000  1.0 0.1139176712
C  C67  1  0.07110000  0.18120000  0.25090000  1.0 0.1139176712
C  C68  1  0.93030000  0.82020000  0.74910000  1.0 0.1139176712
C  C69  1  0.81880000  0.06970000  0.88990000  1.0 0.1139176712
C  C70  1  0.17980000  0.92890000  0.11010000  1.0 0.1139176712
C  C71  1  0.17890000  0.56880000  0.24910000  1.0 0.1139176712
C  C72  1  0.31970000  0.92980000  0.75090000  1.0 0.1139176712
C  C73  1  0.41500000  0.73860000  0.73200000  1.0 -0.0356578742
C  C74  1  0.00660000  0.68300000  0.26800000  1.0 -0.0356578742
C  C75  1  0.93300000  0.16500000  0.17640000  1.0 -0.0356578742
C  C76  1  0.98860000  0.75660000  0.82360000  1.0 -0.0356578742
C  C77  1  0.83500000  0.01140000  0.76800000  1.0 -0.0356578742
C  C78  1  0.24340000  0.06700000  0.23200000  1.0 -0.0356578742
C  C79  1  0.31700000  0.58500000  0.32360000  1.0 -0.0356578742
C  C80  1  0.26140000  0.99340000  0.67640000  1.0 -0.0356578742
C  C81  1  0.32810000  0.64920000  0.67110000  1.0 -0.0992761747
C  C82  1  0.97810000  0.65700000  0.32890000  1.0 -0.0949971051
C  C83  1  0.90700000  0.07810000  0.17890000  1.0 -0.0949971051
C  C84  1  0.89920000  0.72810000  0.82110000  1.0 -0.0992761747
C  C85  1  0.92190000  0.10080000  0.82890000  1.0 -0.0992761747
C  C86  1  0.27190000  0.09300000  0.17110000  1.0 -0.0949971051
C  C87  1  0.34300000  0.67190000  0.32110000  1.0 -0.0992761747
C  C88  1  0.35080000  0.02190000  0.67890000  1.0 -0.0949971051
C  C89  1  0.25160000  0.42570000  0.52910000  1.0 -0.1867200108
C  C90  1  0.89660000  0.72250000  0.47090000  1.0 -0.1867200108
C  C91  1  0.97250000  0.00160000  0.32590000  1.0 -0.1867200108
C  C92  1  0.67570000  0.64660000  0.67410000  1.0 -0.1867200108
C  C93  1  0.99840000  0.32430000  0.97090000  1.0 -0.1867200108
C  C94  1  0.35340000  0.02750000  0.02910000  1.0 -0.1867200108
C  C95  1  0.27750000  0.74840000  0.17410000  1.0 -0.1867200108
C  C96  1  0.57430000  0.10340000  0.82590000  1.0 -0.1867200108
C  C97  1  0.26390000  0.51310000  0.50960000  1.0 -0.0992761747
C  C98  1  0.00350000  0.75430000  0.49040000  1.0 -0.0992761747
C  C99  1  0.00430000  0.01390000  0.25080000  1.0 -0.0992761747
C  C100  1  0.76310000  0.75350000  0.74920000  1.0 -0.0992761747
C  C101  1  0.98610000  0.23690000  0.99040000  1.0 -0.0992761747
C  C102  1  0.24650000  0.99570000  0.00960000  1.0 -0.0992761747
C  C103  1  0.24570000  0.73610000  0.24920000  1.0 -0.0992761747
C  C104  1  0.48690000  0.99650000  0.75080000  1.0 -0.0992761747
C  C105  1  0.34850000  0.43150000  0.56540000  1.0 -0.0295800194
C  C106  1  0.86610000  0.78310000  0.43460000  1.0 -0.0295800194
C  C107  1  0.03310000  0.09850000  0.41700000  1.0 -0.0295800194
C  C108  1  0.68150000  0.61610000  0.58300000  1.0 -0.0295800194
C  C109  1  0.90150000  0.31850000  0.93460000  1.0 -0.0295800194
C  C110  1  0.38390000  0.96690000  0.06540000  1.0 -0.0295800194
C  C111  1  0.21690000  0.65150000  0.08300000  1.0 -0.0295800194
C  C112  1  0.56850000  0.13390000  0.91700000  1.0 -0.0295800194
N  N1  1  0.48130000  0.75801000  0.69331000  1.0 -0.2933667796
N  N2  1  0.06470000  0.78799000  0.30669000  1.0 -0.2933667796
N  N3  1  0.03799000  0.23130000  0.22329000  1.0 -0.2933667796
N  N4  1  0.00801000  0.81470000  0.77671000  1.0 -0.2933667796
N  N5  1  0.76870000  0.99199000  0.80669000  1.0 -0.2933667796
N  N6  1  0.18530000  0.96201000  0.19331000  1.0 -0.2933667796
N  N7  1  0.21201000  0.51870000  0.27671000  1.0 -0.2933667796
N  N8  1  0.24199000  0.93530000  0.72329000  1.0 -0.2933667796
N  N9  1  0.33740000  0.61175000  0.59375000  1.0 0.0558345653
N  N10  1  0.01800000  0.74365000  0.40625000  1.0 0.0558345653
N  N11  1  0.99365000  0.08740000  0.22565000  1.0 0.0558345653
N  N12  1  0.86175000  0.76800000  0.77435000  1.0 0.0558345653
N  N13  1  0.91260000  0.13825000  0.90625000  1.0 0.0558345653
N  N14  1  0.23200000  0.00635000  0.09375000  1.0 0.0558345653
N  N15  1  0.25635000  0.66260000  0.27435000  1.0 0.0558345653
N  N16  1  0.38825000  0.98200000  0.72565000  1.0 0.0558345653
N  N17  1  0.39065000  0.42805000  0.49930000  1.0 -0.4144520561
N  N18  1  0.92875000  0.89135000  0.50070000  1.0 -0.4144520561
N  N19  1  0.14135000  0.14065000  0.46260000  1.0 -0.4144520561
N  N20  1  0.67805000  0.67875000  0.53740000  1.0 -0.4144520561
N  N21  1  0.85935000  0.32195000  0.00070000  1.0 -0.4144520561
N  N22  1  0.32125000  0.85865000  0.99930000  1.0 -0.4153039427
N  N23  1  0.10865000  0.60935000  0.03740000  1.0 -0.4144520561
N  N24  1  0.57195000  0.07125000  0.96260000  1.0 -0.4144520561
O  O1  1  0.24502000  0.37663000  0.30563000  1.0 -0.503483084
O  O2  1  0.07100000  0.93939000  0.69437000  1.0 -0.503483084
O  O3  1  0.18939000  0.99502000  0.36839000  1.0 -0.503483084
O  O4  1  0.62663000  0.82100000  0.63161000  1.0 -0.503483084
O  O5  1  0.00498000  0.37337000  0.19437000  1.0 -0.503483084
O  O6  1  0.17900000  0.81061000  0.80563000  1.0 -0.503483084
O  O7  1  0.06061000  0.75498000  0.13161000  1.0 -0.503483084
O  O8  1  0.62337000  0.92900000  0.86839000  1.0 -0.503483084
O  O9  1  0.23638000  0.34010000  0.16528000  1.0 -0.5455734403
O  O10  1  0.17482000  0.07110000  0.83472000  1.0 -0.5455734403
O  O11  1  0.32110000  0.98638000  0.39628000  1.0 -0.5455734403
O  O12  1  0.59010000  0.92482000  0.60372000  1.0 -0.5455734403
O  O13  1  0.01362000  0.40990000  0.33472000  1.0 -0.5455734403
O  O14  1  0.07518000  0.67890000  0.66528000  1.0 -0.5455734403
O  O15  1  0.92890000  0.76362000  0.10372000  1.0 -0.5455734403
O  O16  1  0.65990000  0.82518000  0.89628000  1.0 -0.5455734403
O  O17  1  0.28183000  0.25803000  0.40856000  1.0 -0.4679814958
O  O18  1  0.84947000  0.87327000  0.59144000  1.0 -0.4679814958
O  O19  1  0.12327000  0.03183000  0.52380000  1.0 -0.4679814958
O  O20  1  0.50803000  0.59947000  0.47620000  1.0 -0.4679814958
O  O21  1  0.96817000  0.49197000  0.09144000  1.0 -0.4679814958
O  O22  1  0.40053000  0.87673000  0.90856000  1.0 -0.4679814958
O  O23  1  0.12673000  0.71817000  0.97620000  1.0 -0.4679814958
O  O24  1  0.74197000  0.15053000  0.02380000  1.0 -0.4679814958
