# DDEC6 charges by PACMAN v1.1 (https://github.com/mtap-research/PACMAN-charge/)
data_XIPBII_ASR_pacman
_symmetry_space_group_name_H-M   'P 1'
_cell_length_a   15.43180000
_cell_length_b   15.43180000
_cell_length_c   15.27640000
_cell_angle_alpha   90.00000000
_cell_angle_beta   90.00000000
_cell_angle_gamma   120.00000000
_symmetry_Int_Tables_number   1
_chemical_formula_structural   Nd2Co3H18C42(NO4)6
_chemical_formula_sum   'Nd4 Co6 H36 C84 N12 O48'
_cell_volume   3150.53874871
_cell_formula_units_Z   2
loop_
 _symmetry_equiv_pos_site_id
 _symmetry_equiv_pos_as_xyz
  1  'x, y, z'
loop_
 _atom_site_type_symbol
 _atom_site_label
 _atom_site_symmetry_multiplicity
 _atom_site_fract_x
 _atom_site_fract_y
 _atom_site_fract_z
 _atom_site_occupancy
 _atom_site_charge
Nd  Nd1  1  0.66666667  0.33333333  0.25000000  1.0 1.8362283043
Nd  Nd2  1  0.33333333  0.66666667  0.25000000  1.0 1.8362283043
Nd  Nd3  1  0.33333333  0.66666667  0.75000000  1.0 1.8362283043
Nd  Nd4  1  0.66666667  0.33333333  0.75000000  1.0 1.8362283043
Co  Co1  1  0.50000000  0.00000000  0.00000000  1.0 1.0572504333
Co  Co2  1  0.00000000  0.50000000  0.00000000  1.0 1.0542491011
Co  Co3  1  0.50000000  0.50000000  0.00000000  1.0 1.0572504333
Co  Co4  1  0.00000000  0.50000000  0.50000000  1.0 1.0542491011
Co  Co5  1  0.50000000  0.00000000  0.50000000  1.0 1.0572504333
Co  Co6  1  0.50000000  0.50000000  0.50000000  1.0 1.0572504333
H  H1  1  0.28710000  0.05300000  0.15560000  1.0 0.1372558888
H  H2  1  0.94700000  0.23410000  0.15560000  1.0 0.1372558888
H  H3  1  0.76590000  0.71290000  0.15560000  1.0 0.1372558888
H  H4  1  0.05300000  0.76590000  0.15560000  1.0 0.1372558888
H  H5  1  0.23410000  0.28710000  0.15560000  1.0 0.1372558888
H  H6  1  0.05300000  0.28710000  0.34440000  1.0 0.1372558888
H  H7  1  0.76590000  0.05300000  0.34440000  1.0 0.1372558888
H  H8  1  0.28710000  0.23410000  0.34440000  1.0 0.1372558888
H  H9  1  0.71290000  0.94700000  0.15560000  1.0 0.1372558888
H  H10  1  0.23410000  0.94700000  0.34440000  1.0 0.1372558888
H  H11  1  0.71290000  0.76590000  0.34440000  1.0 0.1372558888
H  H12  1  0.94700000  0.71290000  0.34440000  1.0 0.1372558888
H  H13  1  0.71290000  0.94700000  0.84440000  1.0 0.1372558888
H  H14  1  0.05300000  0.76590000  0.84440000  1.0 0.1372558888
H  H15  1  0.23410000  0.28710000  0.84440000  1.0 0.1372558888
H  H16  1  0.94700000  0.23410000  0.84440000  1.0 0.1372558888
H  H17  1  0.76590000  0.71290000  0.84440000  1.0 0.1372558888
H  H18  1  0.94700000  0.71290000  0.65560000  1.0 0.1372558888
H  H19  1  0.23410000  0.94700000  0.65560000  1.0 0.1372558888
H  H20  1  0.71290000  0.76590000  0.65560000  1.0 0.1372558888
H  H21  1  0.28710000  0.05300000  0.84440000  1.0 0.1372558888
H  H22  1  0.76590000  0.05300000  0.65560000  1.0 0.1372558888
H  H23  1  0.28710000  0.23410000  0.65560000  1.0 0.1372558888
H  H24  1  0.05300000  0.28710000  0.65560000  1.0 0.1372558888
H  H25  1  0.20000000  0.10000000  0.25000000  1.0 0.1061298854
H  H26  1  0.90000000  0.10000000  0.25000000  1.0 0.1061298854
H  H27  1  0.90000000  0.80000000  0.25000000  1.0 0.1061298854
H  H28  1  0.10000000  0.90000000  0.25000000  1.0 0.1061298854
H  H29  1  0.10000000  0.20000000  0.25000000  1.0 0.1061298854
H  H30  1  0.80000000  0.90000000  0.25000000  1.0 0.1061298854
H  H31  1  0.80000000  0.90000000  0.75000000  1.0 0.1061298854
H  H32  1  0.10000000  0.90000000  0.75000000  1.0 0.1061298854
H  H33  1  0.10000000  0.20000000  0.75000000  1.0 0.1061298854
H  H34  1  0.90000000  0.10000000  0.75000000  1.0 0.1061298854
H  H35  1  0.90000000  0.80000000  0.75000000  1.0 0.1061298854
H  H36  1  0.20000000  0.10000000  0.75000000  1.0 0.1061298854
C  C1  1  0.48850000  0.13500000  0.13880000  1.0 0.5733260345
C  C2  1  0.86500000  0.35350000  0.13880000  1.0 0.5733260345
C  C3  1  0.64650000  0.51150000  0.13880000  1.0 0.5733260345
C  C4  1  0.13500000  0.64650000  0.13880000  1.0 0.5733260345
C  C5  1  0.35350000  0.48850000  0.13880000  1.0 0.5733260345
C  C6  1  0.13500000  0.48850000  0.36120000  1.0 0.5733260345
C  C7  1  0.64650000  0.13500000  0.36120000  1.0 0.5733260345
C  C8  1  0.48850000  0.35350000  0.36120000  1.0 0.5733260345
C  C9  1  0.51150000  0.86500000  0.13880000  1.0 0.5733260345
C  C10  1  0.35350000  0.86500000  0.36120000  1.0 0.5733260345
C  C11  1  0.51150000  0.64650000  0.36120000  1.0 0.5733260345
C  C12  1  0.86500000  0.51150000  0.36120000  1.0 0.5733260345
C  C13  1  0.51150000  0.86500000  0.86120000  1.0 0.5733260345
C  C14  1  0.13500000  0.64650000  0.86120000  1.0 0.5733260345
C  C15  1  0.35350000  0.48850000  0.86120000  1.0 0.5733260345
C  C16  1  0.86500000  0.35350000  0.86120000  1.0 0.5733260345
C  C17  1  0.64650000  0.51150000  0.86120000  1.0 0.5733260345
C  C18  1  0.86500000  0.51150000  0.63880000  1.0 0.5733260345
C  C19  1  0.35350000  0.86500000  0.63880000  1.0 0.5733260345
C  C20  1  0.51150000  0.64650000  0.63880000  1.0 0.5733260345
C  C21  1  0.48850000  0.13500000  0.86120000  1.0 0.5733260345
C  C22  1  0.64650000  0.13500000  0.63880000  1.0 0.5733260345
C  C23  1  0.48850000  0.35350000  0.63880000  1.0 0.5733260345
C  C24  1  0.13500000  0.48850000  0.63880000  1.0 0.5733260345
C  C25  1  0.42460000  0.15960000  0.19660000  1.0 0.1372558888
C  C26  1  0.84040000  0.26500000  0.19660000  1.0 0.1372558888
C  C27  1  0.73500000  0.57540000  0.19660000  1.0 0.1372558888
C  C28  1  0.15960000  0.73500000  0.19660000  1.0 0.1372558888
C  C29  1  0.26500000  0.42460000  0.19660000  1.0 0.1372558888
C  C30  1  0.15960000  0.42460000  0.30340000  1.0 0.1372558888
C  C31  1  0.73500000  0.15960000  0.30340000  1.0 0.1372558888
C  C32  1  0.42460000  0.26500000  0.30340000  1.0 0.1372558888
C  C33  1  0.57540000  0.84040000  0.19660000  1.0 0.1372558888
C  C34  1  0.26500000  0.84040000  0.30340000  1.0 0.1372558888
C  C35  1  0.57540000  0.73500000  0.30340000  1.0 0.1372558888
C  C36  1  0.84040000  0.57540000  0.30340000  1.0 0.1372558888
C  C37  1  0.57540000  0.84040000  0.80340000  1.0 0.1372558888
C  C38  1  0.15960000  0.73500000  0.80340000  1.0 0.1372558888
C  C39  1  0.26500000  0.42460000  0.80340000  1.0 0.1372558888
C  C40  1  0.84040000  0.26500000  0.80340000  1.0 0.1372558888
C  C41  1  0.73500000  0.57540000  0.80340000  1.0 0.1372558888
C  C42  1  0.84040000  0.57540000  0.69660000  1.0 0.1372558888
C  C43  1  0.26500000  0.84040000  0.69660000  1.0 0.1372558888
C  C44  1  0.57540000  0.73500000  0.69660000  1.0 0.1372558888
C  C45  1  0.42460000  0.15960000  0.80340000  1.0 0.1372558888
C  C46  1  0.73500000  0.15960000  0.69660000  1.0 0.1372558888
C  C47  1  0.42460000  0.26500000  0.69660000  1.0 0.1372558888
C  C48  1  0.15960000  0.42460000  0.69660000  1.0 0.1372558888
C  C49  1  0.32100000  0.10640000  0.19400000  1.0 -0.1363422665
C  C50  1  0.89360000  0.21460000  0.19400000  1.0 -0.1363422665
C  C51  1  0.78540000  0.67900000  0.19400000  1.0 -0.1363422665
C  C52  1  0.10640000  0.78540000  0.19400000  1.0 -0.1363422665
C  C53  1  0.21460000  0.32100000  0.19400000  1.0 -0.1363422665
C  C54  1  0.10640000  0.32100000  0.30600000  1.0 -0.1363422665
C  C55  1  0.78540000  0.10640000  0.30600000  1.0 -0.1363422665
C  C56  1  0.32100000  0.21460000  0.30600000  1.0 -0.1363422665
C  C57  1  0.67900000  0.89360000  0.19400000  1.0 -0.1363422665
C  C58  1  0.21460000  0.89360000  0.30600000  1.0 -0.1363422665
C  C59  1  0.67900000  0.78540000  0.30600000  1.0 -0.1363422665
C  C60  1  0.89360000  0.67900000  0.30600000  1.0 -0.1363422665
C  C61  1  0.67900000  0.89360000  0.80600000  1.0 -0.1363422665
C  C62  1  0.10640000  0.78540000  0.80600000  1.0 -0.1363422665
C  C63  1  0.21460000  0.32100000  0.80600000  1.0 -0.1363422665
C  C64  1  0.89360000  0.21460000  0.80600000  1.0 -0.1363422665
C  C65  1  0.78540000  0.67900000  0.80600000  1.0 -0.1363422665
C  C66  1  0.89360000  0.67900000  0.69400000  1.0 -0.1363422665
C  C67  1  0.21460000  0.89360000  0.69400000  1.0 -0.1363422665
C  C68  1  0.67900000  0.78540000  0.69400000  1.0 -0.1363422665
C  C69  1  0.32100000  0.10640000  0.80600000  1.0 -0.1363422665
C  C70  1  0.78540000  0.10640000  0.69400000  1.0 -0.1363422665
C  C71  1  0.32100000  0.21460000  0.69400000  1.0 -0.1363422665
C  C72  1  0.10640000  0.32100000  0.69400000  1.0 -0.1363422665
C  C73  1  0.26960000  0.13480000  0.25000000  1.0 -0.0582737426
C  C74  1  0.86520000  0.13480000  0.25000000  1.0 -0.0582737426
C  C75  1  0.86520000  0.73040000  0.25000000  1.0 -0.0582737426
C  C76  1  0.13480000  0.86520000  0.25000000  1.0 -0.0582737426
C  C77  1  0.13480000  0.26960000  0.25000000  1.0 -0.0582737426
C  C78  1  0.73040000  0.86520000  0.25000000  1.0 -0.0582737426
C  C79  1  0.73040000  0.86520000  0.75000000  1.0 -0.0582737426
C  C80  1  0.13480000  0.86520000  0.75000000  1.0 -0.0582737426
C  C81  1  0.13480000  0.26960000  0.75000000  1.0 -0.0582737426
C  C82  1  0.86520000  0.13480000  0.75000000  1.0 -0.0582737426
C  C83  1  0.86520000  0.73040000  0.75000000  1.0 -0.0582737426
C  C84  1  0.26960000  0.13480000  0.75000000  1.0 -0.0582737426
N  N1  1  0.47510000  0.23755000  0.25000000  1.0 -0.3217818408
N  N2  1  0.76245000  0.23755000  0.25000000  1.0 -0.3217818408
N  N3  1  0.76245000  0.52490000  0.25000000  1.0 -0.3217818408
N  N4  1  0.23755000  0.76245000  0.25000000  1.0 -0.3217818408
N  N5  1  0.23755000  0.47510000  0.25000000  1.0 -0.3217818408
N  N6  1  0.52490000  0.76245000  0.25000000  1.0 -0.3217818408
N  N7  1  0.52490000  0.76245000  0.75000000  1.0 -0.3217818408
N  N8  1  0.23755000  0.76245000  0.75000000  1.0 -0.3217818408
N  N9  1  0.23755000  0.47510000  0.75000000  1.0 -0.3217818408
N  N10  1  0.76245000  0.23755000  0.75000000  1.0 -0.3217818408
N  N11  1  0.76245000  0.52490000  0.75000000  1.0 -0.3217818408
N  N12  1  0.47510000  0.23755000  0.75000000  1.0 -0.3217818408
O  O1  1  0.58260000  0.19600000  0.14150000  1.0 -0.5968959995
O  O2  1  0.80400000  0.38660000  0.14150000  1.0 -0.5968959995
O  O3  1  0.61340000  0.41740000  0.14150000  1.0 -0.5968959995
O  O4  1  0.19600000  0.61340000  0.14150000  1.0 -0.5968959995
O  O5  1  0.38660000  0.58260000  0.14150000  1.0 -0.5968959995
O  O6  1  0.19600000  0.58260000  0.35850000  1.0 -0.5968959995
O  O7  1  0.61340000  0.19600000  0.35850000  1.0 -0.5968959995
O  O8  1  0.58260000  0.38660000  0.35850000  1.0 -0.5968959995
O  O9  1  0.41740000  0.80400000  0.14150000  1.0 -0.5968959995
O  O10  1  0.38660000  0.80400000  0.35850000  1.0 -0.5968959995
O  O11  1  0.41740000  0.61340000  0.35850000  1.0 -0.5968959995
O  O12  1  0.80400000  0.41740000  0.35850000  1.0 -0.5968959995
O  O13  1  0.41740000  0.80400000  0.85850000  1.0 -0.5968959995
O  O14  1  0.19600000  0.61340000  0.85850000  1.0 -0.5968959995
O  O15  1  0.38660000  0.58260000  0.85850000  1.0 -0.5968959995
O  O16  1  0.80400000  0.38660000  0.85850000  1.0 -0.5968959995
O  O17  1  0.61340000  0.41740000  0.85850000  1.0 -0.5968959995
O  O18  1  0.80400000  0.41740000  0.64150000  1.0 -0.5968959995
O  O19  1  0.38660000  0.80400000  0.64150000  1.0 -0.5968959995
O  O20  1  0.41740000  0.61340000  0.64150000  1.0 -0.5968959995
O  O21  1  0.58260000  0.19600000  0.85850000  1.0 -0.5968959995
O  O22  1  0.61340000  0.19600000  0.64150000  1.0 -0.5968959995
O  O23  1  0.58260000  0.38660000  0.64150000  1.0 -0.5968959995
O  O24  1  0.19600000  0.58260000  0.64150000  1.0 -0.5968959995
O  O25  1  0.44540000  0.05800000  0.09400000  1.0 -0.5477372451
O  O26  1  0.94200000  0.38740000  0.09400000  1.0 -0.5477372451
O  O27  1  0.61260000  0.55460000  0.09400000  1.0 -0.5477372451
O  O28  1  0.05800000  0.61260000  0.09400000  1.0 -0.5477372451
O  O29  1  0.38740000  0.44540000  0.09400000  1.0 -0.5477372451
O  O30  1  0.05800000  0.44540000  0.40600000  1.0 -0.5477372451
O  O31  1  0.61260000  0.05800000  0.40600000  1.0 -0.5477372451
O  O32  1  0.44540000  0.38740000  0.40600000  1.0 -0.5477372451
O  O33  1  0.55460000  0.94200000  0.09400000  1.0 -0.5477372451
O  O34  1  0.38740000  0.94200000  0.40600000  1.0 -0.5477372451
O  O35  1  0.55460000  0.61260000  0.40600000  1.0 -0.5477372451
O  O36  1  0.94200000  0.55460000  0.40600000  1.0 -0.5477372451
O  O37  1  0.55460000  0.94200000  0.90600000  1.0 -0.5477372451
O  O38  1  0.05800000  0.61260000  0.90600000  1.0 -0.5477372451
O  O39  1  0.38740000  0.44540000  0.90600000  1.0 -0.5477372451
O  O40  1  0.94200000  0.38740000  0.90600000  1.0 -0.5477372451
O  O41  1  0.61260000  0.55460000  0.90600000  1.0 -0.5477372451
O  O42  1  0.94200000  0.55460000  0.59400000  1.0 -0.5477372451
O  O43  1  0.38740000  0.94200000  0.59400000  1.0 -0.5477372451
O  O44  1  0.55460000  0.61260000  0.59400000  1.0 -0.5477372451
O  O45  1  0.44540000  0.05800000  0.90600000  1.0 -0.5477372451
O  O46  1  0.61260000  0.05800000  0.59400000  1.0 -0.5477372451
O  O47  1  0.44540000  0.38740000  0.59400000  1.0 -0.5477372451
O  O48  1  0.05800000  0.44540000  0.59400000  1.0 -0.5477372451
