# DDEC6 charges by PACMAN v1.1 (https://github.com/mtap-research/PACMAN-charge/)
data_XIPGUA_ASR_pacman
_symmetry_space_group_name_H-M   'P 1'
_cell_length_a   11.88100000
_cell_length_b   15.07000000
_cell_length_c   18.33800000
_cell_angle_alpha   66.01400000
_cell_angle_beta   76.90100000
_cell_angle_gamma   75.64600000
_symmetry_Int_Tables_number   1
_chemical_formula_structural   K5Cu5Ge2H10W18C7NO63
_chemical_formula_sum   'K5 Cu5 Ge2 H10 W18 C7 N1 O63'
_cell_volume   2876.64783863
_cell_formula_units_Z   1
loop_
 _symmetry_equiv_pos_site_id
 _symmetry_equiv_pos_as_xyz
  1  'x, y, z'
loop_
 _atom_site_type_symbol
 _atom_site_label
 _atom_site_symmetry_multiplicity
 _atom_site_fract_x
 _atom_site_fract_y
 _atom_site_fract_z
 _atom_site_occupancy
 _atom_site_charge
K  K1  1  0.68901000  0.42677000  0.79108000  1.0 0.9608098491
K  K2  1  0.92162000  0.60743000  0.90804000  1.0 0.9267258271
K  K3  1  0.60312000  0.74301000  0.50988000  1.0 0.9127615019
K  K4  1  0.01401000  0.31283000  0.18352000  1.0 0.9127615019
K  K5  1  0.86559000  0.01023000  0.24196000  1.0 0.9231193288
Cu  Cu1  1  0.23161000  0.62554000  0.30487000  1.0 1.011833094
Cu  Cu2  1  0.09767000  0.44293000  0.42863000  1.0 1.1675811036
Cu  Cu3  1  0.52046000  0.58645000  0.27222000  1.0 1.1942881568
Cu  Cu4  1  0.38522000  0.40450000  0.39352000  1.0 1.011833094
Cu  Cu5  1  0.27718000  0.89245000  0.70157000  1.0 0.6698699816
Ge  Ge1  1  0.25343000  0.55047000  0.48853000  1.0 1.4217584356
Ge  Ge2  1  0.35273000  0.48685000  0.20594000  1.0 1.4131164773
H  H1  1  0.47334000  0.83388000  0.82357000  1.0 0.0738246514
H  H2  1  0.38805000  0.84812000  0.91556000  1.0 0.0825308138
H  H3  1  0.21004000  0.65302000  0.85447000  1.0 0.1152117475
H  H4  1  0.22959000  0.68450000  0.74769000  1.0 0.0825308138
H  H5  1  0.33658000  0.70065000  0.90978000  1.0 0.1033575608
H  H6  1  0.21683000  0.79921000  0.88502000  1.0 0.0738246514
H  H7  1  0.16285000  0.94882000  0.87487000  1.0 0.0825308138
H  H8  1  0.20799000  0.07408000  0.79178000  1.0 0.1101269001
H  H9  1  0.48717000  0.67790000  0.80374000  1.0 0.1101269001
H  H10  1  0.41766000  0.66104000  0.73523000  1.0 0.1101269001
W  W1  1  0.18636000  0.70981000  0.10473000  1.0 2.4316480382
W  W2  1  0.36056000  0.27339000  0.14644000  1.0 2.4499358161
W  W3  1  0.51476000  0.48395000  0.00211000  1.0 2.4595210775
W  W4  1  0.67500000  0.45056000  0.15118000  1.0 2.3303965553
W  W5  1  0.50495000  0.25255000  0.29105000  1.0 2.4114819988
W  W6  1  0.43605000  0.50817000  0.65782000  1.0 2.418666981
W  W7  1  0.25617000  0.75803000  0.55357000  1.0 2.4316480382
W  W8  1  0.18179000  0.52358000  0.04289000  1.0 2.4316480382
W  W9  1  0.51006000  0.65847000  0.06895000  1.0 2.4039653762
W  W10  1  0.05069000  0.52553000  0.22490000  1.0 2.418666981
W  W11  1  0.38834000  0.74588000  0.37881000  1.0 2.3819016441
W  W12  1  0.55354000  0.50577000  0.47778000  1.0 2.3397613986
W  W13  1  0.21823000  0.27700000  0.32688000  1.0 2.4316480382
W  W14  1  0.09911000  0.79442000  0.40304000  1.0 2.389876984
W  W15  1  0.10573000  0.37677000  0.62916000  1.0 2.3521849139
W  W16  1  0.10340000  0.54478000  0.70060000  1.0 2.4595210775
W  W17  1  0.94214000  0.58645000  0.54799000  1.0 2.3673705085
W  W18  1  0.42539000  0.33586000  0.59070000  1.0 2.3521849139
C  C1  1  0.10295000  0.79387000  0.78976000  1.0 0.5920686944
C  C2  1  0.38463000  0.84514000  0.85718000  1.0 -0.0669953414
C  C3  1  0.21413000  0.71525000  0.79537000  1.0 -0.2659203784
C  C4  1  0.31027000  0.77481000  0.86394000  1.0 -0.1493320541
C  C5  1  0.22695000  0.99234000  0.82572000  1.0 -0.029765681
C  C6  1  0.43167000  0.71709000  0.75500000  1.0 -0.2644484417
C  C7  1  0.49259000  0.79221000  0.68145000  1.0 0.5793995484
N  N1  1  0.31496000  0.76334000  0.78623000  1.0 -0.0941864924
O  O1  1  0.27080000  0.32072000  0.64813000  1.0 -0.9716826256
O  O2  1  0.67038000  0.58847000  0.07909000  1.0 -0.9902815994
O  O3  1  0.39218000  0.48589000  0.53761000  1.0 -1.0094092365
O  O4  1  0.25592000  0.83625000  0.34335000  1.0 -0.9902815994
O  O5  1  0.00142000  0.70949000  0.48985000  1.0 -0.9804290992
O  O6  1  0.35794000  0.35190000  0.23458000  1.0 -1.0415704425
O  O7  1  0.24557000  0.22818000  0.23483000  1.0 -1.0745613352
O  O8  1  0.35625000  0.51679000  0.28651000  1.0 -0.9292409317
O  O9  1  0.46132000  0.37035000  0.67640000  1.0 -0.9804290992
O  O10  1  0.99402000  0.89613000  0.35377000  1.0 -0.9196802751
O  O11  1  0.27090000  0.67419000  0.47051000  1.0 -1.0094092365
O  O12  1  0.25765000  0.51598000  0.40937000  1.0 -0.9196802751
O  O13  1  0.12349000  0.71513000  0.34690000  1.0 -0.8968935982
O  O14  1  0.27304000  0.50325000  0.69732000  1.0 -0.9406795279
O  O15  1  0.48175000  0.19897000  0.20805000  1.0 -1.0094092365
O  O16  1  0.21625000  0.54892000  0.16291000  1.0 -1.0274168031
O  O17  1  0.58840000  0.36590000  0.53394000  1.0 -0.9804290992
O  O18  1  0.99065000  0.54269000  0.46506000  1.0 -0.9292409317
O  O19  1  0.22324000  0.70718000  0.19492000  1.0 -0.8596399651
O  O20  1  0.46599000  0.35580000  0.06876000  1.0 -0.9804290992
O  O21  1  0.65323000  0.43619000  0.05024000  1.0 -0.9603151755
O  O22  1  0.62806000  0.48625000  0.23811000  1.0 -0.9406795279
O  O23  1  0.03977000  0.66466000  0.16350000  1.0 -0.9902815994
O  O24  1  0.49072000  0.50738000  0.73960000  1.0 -0.8876086847
O  O25  1  0.41667000  0.68711000  0.30696000  1.0 -0.9496111051
O  O26  1  0.82796000  0.40961000  0.14750000  1.0 -0.9131057636
O  O27  1  0.14008000  0.83088000  0.48818000  1.0 -0.9496111051
O  O28  1  0.94679000  0.44193000  0.62349000  1.0 -0.9804290992
O  O29  1  0.46852000  0.52416000  0.12325000  1.0 -0.9984254614
O  O30  1  0.08388000  0.41289000  0.72770000  1.0 -0.9716826256
O  O31  1  0.36881000  0.19540000  0.35409000  1.0 -1.0212462322
O  O32  1  0.53494000  0.61784000  0.97363000  1.0 -0.9496111051
O  O33  1  0.54213000  0.50403000  0.38191000  1.0 -0.9292409317
O  O34  1  0.14627000  0.51075000  0.57616000  1.0 -1.0094092365
O  O35  1  0.15789000  0.66230000  0.02450000  1.0 -0.9406795279
O  O36  1  0.11975000  0.35436000  0.53799000  1.0 -0.9292409317
O  O37  1  0.10639000  0.38155000  0.26786000  1.0 -1.0415704425
O  O38  1  0.34913000  0.71175000  0.05313000  1.0 -0.9804290992
O  O39  1  0.07338000  0.52842000  0.31822000  1.0 -0.9406795279
O  O40  1  0.04343000  0.50889000  0.12368000  1.0 -1.0094092365
O  O41  1  0.05751000  0.55929000  0.79334000  1.0 -0.8596399651
O  O42  1  0.39171000  0.32521000  0.50455000  1.0 -0.8596399651
O  O43  1  0.50274000  0.31349000  0.35704000  1.0 -0.8710241691
O  O44  1  0.15289000  0.67682000  0.62946000  1.0 -0.9406795279
O  O45  1  0.34554000  0.52997000  0.00120000  1.0 -0.9496111051
O  O46  1  0.12664000  0.52530000  0.96192000  1.0 -0.833540477
O  O47  1  0.56405000  0.46755000  0.90917000  1.0 -0.9196802751
O  O48  1  0.20387000  0.34009000  0.39451000  1.0 -0.9603151755
O  O49  1  0.49743000  0.67312000  0.16341000  1.0 -0.9196802751
O  O50  1  0.79090000  0.62708000  0.54798000  1.0 -0.8596399651
O  O51  1  0.23958000  0.38197000  0.09720000  1.0 -1.0094092365
O  O52  1  0.96676000  0.59403000  0.65028000  1.0 -0.9292409317
O  O53  1  0.37605000  0.80478000  0.46468000  1.0 -1.0415704425
O  O54  1  0.57322000  0.52220000  0.57687000  1.0 -0.9496111051
O  O55  1  0.52317000  0.65086000  0.43155000  1.0 -1.0274168031
O  O56  1  0.37944000  0.64956000  0.60109000  1.0 -0.9716826256
O  O57  1  0.61457000  0.32359000  0.20925000  1.0 -0.9804290992
O  O58  1  0.33423000  0.95399000  0.80796000  1.0 -0.1015772709
O  O59  1  0.58902000  0.76310000  0.64642000  1.0 -0.5383593814
O  O60  1  0.12049000  0.88693000  0.74992000  1.0 -0.5591140763
O  O61  1  0.43488000  0.88431000  0.65550000  1.0 -0.5674037711
O  O62  1  0.00429000  0.77177000  0.82360000  1.0 -0.548594989
O  O63  1  0.08369000  0.07887000  0.30900000  1.0 -0.1015772709
