# DDEC6 charges by PACMAN v1.1 (https://github.com/mtap-research/PACMAN-charge/)
data_XIQHIO_FSR_pacman
_symmetry_space_group_name_H-M   'P 1'
_cell_length_a   9.34100000
_cell_length_b   8.89200000
_cell_length_c   9.75051000
_cell_angle_alpha   90.00000000
_cell_angle_beta   120.50100000
_cell_angle_gamma   90.00000000
_symmetry_Int_Tables_number   1
_chemical_formula_structural   Fe(PO4)2
_chemical_formula_sum   'Fe4 P8 O32'
_cell_volume   697.80822111
_cell_formula_units_Z   4
loop_
 _symmetry_equiv_pos_site_id
 _symmetry_equiv_pos_as_xyz
  1  'x, y, z'
loop_
 _atom_site_type_symbol
 _atom_site_label
 _atom_site_symmetry_multiplicity
 _atom_site_fract_x
 _atom_site_fract_y
 _atom_site_fract_z
 _atom_site_occupancy
 _atom_site_charge
Fe  Fe1  1  0.00000000  0.88180000  0.75000000  1.0 1.6111292385
Fe  Fe2  1  0.00000000  0.11820000  0.25000000  1.0 1.6111292385
Fe  Fe3  1  0.50000000  0.60420000  0.75000000  1.0 1.5927571201
Fe  Fe4  1  0.50000000  0.39580000  0.25000000  1.0 1.5927571201
P  P1  1  0.77010000  0.89970000  0.93310000  1.0 1.5018868588
P  P2  1  0.22990000  0.89970000  0.56690000  1.0 1.5018868588
P  P3  1  0.22990000  0.10030000  0.06690000  1.0 1.5018868588
P  P4  1  0.77010000  0.10030000  0.43310000  1.0 1.5018868588
P  P5  1  0.67000000  0.65860000  0.53240000  1.0 1.4905820333
P  P6  1  0.33000000  0.65860000  0.96760000  1.0 1.4905820333
P  P7  1  0.33000000  0.34140000  0.46760000  1.0 1.4905820333
P  P8  1  0.67000000  0.34140000  0.03240000  1.0 1.4905820333
O  O1  1  0.89160000  0.85460000  0.88190000  1.0 -0.6675162769
O  O2  1  0.10840000  0.85460000  0.61810000  1.0 -0.6675162769
O  O3  1  0.10840000  0.14540000  0.11810000  1.0 -0.6675162769
O  O4  1  0.89160000  0.14540000  0.38190000  1.0 -0.6675162769
O  O5  1  0.83880000  0.73260000  0.59660000  1.0 -0.6400077797
O  O6  1  0.16120000  0.73260000  0.90340000  1.0 -0.6400077797
O  O7  1  0.16120000  0.26740000  0.40340000  1.0 -0.6400077797
O  O8  1  0.83880000  0.26740000  0.09660000  1.0 -0.6400077797
O  O9  1  0.85730000  0.94430000  0.10920000  1.0 -0.5993660546
O  O10  1  0.14270000  0.94430000  0.39080000  1.0 -0.5993660546
O  O11  1  0.14270000  0.05570000  0.89080000  1.0 -0.5993660546
O  O12  1  0.85730000  0.05570000  0.60920000  1.0 -0.5993660546
O  O13  1  0.65000000  0.54850000  0.40550000  1.0 -0.6203859605
O  O14  1  0.35000000  0.54850000  0.09450000  1.0 -0.6203859605
O  O15  1  0.35000000  0.45150000  0.59450000  1.0 -0.6203859605
O  O16  1  0.65000000  0.45150000  0.90550000  1.0 -0.6203859605
O  O17  1  0.64720000  0.58760000  0.66130000  1.0 -0.6632472134
O  O18  1  0.35280000  0.58760000  0.83870000  1.0 -0.6632472134
O  O19  1  0.35280000  0.41240000  0.33870000  1.0 -0.6632472134
O  O20  1  0.64720000  0.41240000  0.16130000  1.0 -0.6632472134
O  O21  1  0.64480000  0.77480000  0.90730000  1.0 -0.6292303062
O  O22  1  0.35520000  0.77480000  0.59270000  1.0 -0.6292303062
O  O23  1  0.35520000  0.22520000  0.09270000  1.0 -0.6292303062
O  O24  1  0.64480000  0.22520000  0.40730000  1.0 -0.6292303062
O  O25  1  0.67400000  0.03900000  0.82780000  1.0 -0.374594704
O  O26  1  0.32600000  0.03900000  0.67220000  1.0 -0.374594704
O  O27  1  0.32600000  0.96100000  0.17220000  1.0 -0.374594704
O  O28  1  0.67400000  0.96100000  0.32780000  1.0 -0.374594704
O  O29  1  0.53020000  0.78330000  0.45010000  1.0 -0.4000637762
O  O30  1  0.46980000  0.78330000  0.04990000  1.0 -0.4000637762
O  O31  1  0.46980000  0.21670000  0.54990000  1.0 -0.4000637762
O  O32  1  0.53020000  0.21670000  0.95010000  1.0 -0.4000637762
