# DDEC6 charges by PACMAN v1.1 (https://github.com/mtap-research/PACMAN-charge/)
data_XIQQUN_ASR_pacman
_symmetry_space_group_name_H-M   'P 1'
_cell_length_a   25.65160000
_cell_length_b   22.88620000
_cell_length_c   18.21840000
_cell_angle_alpha   76.28690000
_cell_angle_beta   60.08470000
_cell_angle_gamma   43.62840000
_symmetry_Int_Tables_number   1
_chemical_formula_structural   Th3H54C54(N3O10)2
_chemical_formula_sum   'Th6 H108 C108 N12 O40'
_cell_volume   6257.54657267
_cell_formula_units_Z   2
loop_
 _symmetry_equiv_pos_site_id
 _symmetry_equiv_pos_as_xyz
  1  'x, y, z'
loop_
 _atom_site_type_symbol
 _atom_site_label
 _atom_site_symmetry_multiplicity
 _atom_site_fract_x
 _atom_site_fract_y
 _atom_site_fract_z
 _atom_site_occupancy
 _atom_site_charge
Th  Th1  1  0.40831000  0.59169000  0.40831000  1.0 2.1484262222
Th  Th2  1  0.59169000  0.40831000  0.59169000  1.0 2.1484262222
Th  Th3  1  0.44927000  0.64809000  0.55073000  1.0 2.3784859651
Th  Th4  1  0.64809000  0.44927000  0.35191000  1.0 2.3784859651
Th  Th5  1  0.55073000  0.35191000  0.44927000  1.0 2.3696380133
Th  Th6  1  0.35191000  0.55073000  0.64809000  1.0 2.3696380133
H  H1  1  0.37540000  0.52600000  0.22920000  1.0 0.0781025525
H  H2  1  0.52600000  0.37540000  0.86940000  1.0 0.0781025525
H  H3  1  0.22920000  0.86940000  0.37540000  1.0 0.0781025525
H  H4  1  0.86940000  0.22920000  0.52600000  1.0 0.0781025525
H  H5  1  0.62460000  0.47400000  0.77080000  1.0 0.0781025525
H  H6  1  0.47400000  0.62460000  0.13060000  1.0 0.0781025525
H  H7  1  0.77080000  0.13060000  0.62460000  1.0 0.0781025525
H  H8  1  0.13060000  0.77080000  0.47400000  1.0 0.0781025525
H  H9  1  0.34630000  0.49910000  0.14570000  1.0 0.119489973
H  H10  1  0.49910000  0.34630000  0.00890000  1.0 0.119489973
H  H11  1  0.14570000  0.00890000  0.34630000  1.0 0.119489973
H  H12  1  0.00890000  0.14570000  0.49910000  1.0 0.119489973
H  H13  1  0.65370000  0.50090000  0.85430000  1.0 0.119489973
H  H14  1  0.50090000  0.65370000  0.99110000  1.0 0.119489973
H  H15  1  0.85430000  0.99110000  0.65370000  1.0 0.119489973
H  H16  1  0.99110000  0.85430000  0.50090000  1.0 0.119489973
H  H17  1  0.47120000  0.30140000  0.30900000  1.0 0.119489973
H  H18  1  0.30140000  0.47120000  0.91840000  1.0 0.119489973
H  H19  1  0.30900000  0.91840000  0.47120000  1.0 0.119489973
H  H20  1  0.91840000  0.30900000  0.30140000  1.0 0.119489973
H  H21  1  0.52880000  0.69860000  0.69100000  1.0 0.119489973
H  H22  1  0.69860000  0.52880000  0.08160000  1.0 0.119489973
H  H23  1  0.69100000  0.08160000  0.52880000  1.0 0.119489973
H  H24  1  0.08160000  0.69100000  0.69860000  1.0 0.119489973
H  H25  1  0.44460000  0.27220000  0.22380000  1.0 0.1136238655
H  H26  1  0.27220000  0.44460000  0.05940000  1.0 0.1136238655
H  H27  1  0.22380000  0.05940000  0.44460000  1.0 0.1136238655
H  H28  1  0.05940000  0.22380000  0.27220000  1.0 0.1136238655
H  H29  1  0.55540000  0.72780000  0.77620000  1.0 0.1136238655
H  H30  1  0.72780000  0.55540000  0.94060000  1.0 0.1136238655
H  H31  1  0.77620000  0.94060000  0.55540000  1.0 0.1136238655
H  H32  1  0.94060000  0.77620000  0.72780000  1.0 0.1136238655
H  H33  1  0.40760000  0.25460000  0.05400000  1.0 0.1299432204
H  H34  1  0.25460000  0.40760000  0.28380000  1.0 0.1299432204
H  H35  1  0.05400000  0.28380000  0.40760000  1.0 0.1299432204
H  H36  1  0.28380000  0.05400000  0.25460000  1.0 0.1299432204
H  H37  1  0.59240000  0.74540000  0.94600000  1.0 0.1299432204
H  H38  1  0.74540000  0.59240000  0.71620000  1.0 0.1299432204
H  H39  1  0.94600000  0.71620000  0.59240000  1.0 0.1299432204
H  H40  1  0.71620000  0.94600000  0.74540000  1.0 0.1299432204
H  H41  1  0.35830000  0.19090000  0.10950000  1.0 0.1035163939
H  H42  1  0.19090000  0.35830000  0.34130000  1.0 0.1035163939
H  H43  1  0.10950000  0.34130000  0.35830000  1.0 0.1035163939
H  H44  1  0.34130000  0.10950000  0.19090000  1.0 0.1035163939
H  H45  1  0.64170000  0.80910000  0.89050000  1.0 0.1035163939
H  H46  1  0.80910000  0.64170000  0.65870000  1.0 0.1035163939
H  H47  1  0.89050000  0.65870000  0.64170000  1.0 0.1035163939
H  H48  1  0.65870000  0.89050000  0.80910000  1.0 0.1035163939
H  H49  1  0.20490000  0.79510000  0.79510000  1.0 0.1035163939
H  H50  1  0.79510000  0.20490000  0.20490000  1.0 0.0938797766
H  H51  1  0.63960000  0.63960000  0.36040000  1.0 0.1392889295
H  H52  1  0.36040000  0.36040000  0.63960000  1.0 0.1392889295
H  H53  1  0.33390000  0.74210000  0.27590000  1.0 0.2431371906
H  H54  1  0.74210000  0.33390000  0.64810000  1.0 0.2431371906
H  H55  1  0.27590000  0.64810000  0.33390000  1.0 0.2431371906
H  H56  1  0.64810000  0.27590000  0.74210000  1.0 0.2431371906
H  H57  1  0.66610000  0.25790000  0.72410000  1.0 0.2431371906
H  H58  1  0.25790000  0.66610000  0.35190000  1.0 0.2431371906
H  H59  1  0.72410000  0.35190000  0.66610000  1.0 0.2431371906
H  H60  1  0.35190000  0.72410000  0.25790000  1.0 0.2431371906
H  H61  1  0.28610000  0.83050000  0.12430000  1.0 0.073345507
H  H62  1  0.83050000  0.28610000  0.75910000  1.0 0.073345507
H  H63  1  0.12430000  0.75910000  0.28610000  1.0 0.073345507
H  H64  1  0.75910000  0.12430000  0.83050000  1.0 0.073345507
H  H65  1  0.71390000  0.16950000  0.87570000  1.0 0.073345507
H  H66  1  0.16950000  0.71390000  0.24090000  1.0 0.073345507
H  H67  1  0.87570000  0.24090000  0.71390000  1.0 0.073345507
H  H68  1  0.24090000  0.87570000  0.16950000  1.0 0.073345507
H  H69  1  0.27620000  0.85260000  0.21020000  1.0 0.0781025525
H  H70  1  0.85260000  0.27620000  0.66100000  1.0 0.0781025525
H  H71  1  0.21020000  0.66100000  0.27620000  1.0 0.0781025525
H  H72  1  0.66100000  0.21020000  0.85260000  1.0 0.0781025525
H  H73  1  0.72380000  0.14740000  0.78980000  1.0 0.0781025525
H  H74  1  0.14740000  0.72380000  0.33900000  1.0 0.0781025525
H  H75  1  0.78980000  0.33900000  0.72380000  1.0 0.0781025525
H  H76  1  0.33900000  0.78980000  0.14740000  1.0 0.0781025525
H  H77  1  0.36720000  0.76440000  0.14100000  1.0 0.0781025525
H  H78  1  0.76440000  0.36720000  0.72740000  1.0 0.0781025525
H  H79  1  0.14100000  0.72740000  0.36720000  1.0 0.0781025525
H  H80  1  0.72740000  0.14100000  0.76440000  1.0 0.0781025525
H  H81  1  0.63280000  0.23560000  0.85900000  1.0 0.0781025525
H  H82  1  0.23560000  0.63280000  0.27260000  1.0 0.0781025525
H  H83  1  0.85900000  0.27260000  0.63280000  1.0 0.0781025525
H  H84  1  0.27260000  0.85900000  0.23560000  1.0 0.0781025525
H  H85  1  0.32110000  0.70790000  0.09510000  1.0 0.0608221794
H  H86  1  0.70790000  0.32110000  0.87590000  1.0 0.0608221794
H  H87  1  0.09510000  0.87590000  0.32110000  1.0 0.0608221794
H  H88  1  0.87590000  0.09510000  0.70790000  1.0 0.0608221794
H  H89  1  0.67890000  0.29210000  0.90490000  1.0 0.0608221794
H  H90  1  0.29210000  0.67890000  0.12410000  1.0 0.0608221794
H  H91  1  0.90490000  0.12410000  0.67890000  1.0 0.0608221794
H  H92  1  0.12410000  0.90490000  0.29210000  1.0 0.0608221794
H  H93  1  0.39890000  0.66070000  0.11150000  1.0 0.0608221794
H  H94  1  0.66070000  0.39890000  0.82890000  1.0 0.0608221794
H  H95  1  0.11150000  0.82890000  0.39890000  1.0 0.0608221794
H  H96  1  0.82890000  0.11150000  0.66070000  1.0 0.0608221794
H  H97  1  0.60110000  0.33930000  0.88850000  1.0 0.0608221794
H  H98  1  0.33930000  0.60110000  0.17110000  1.0 0.0608221794
H  H99  1  0.88850000  0.17110000  0.60110000  1.0 0.0608221794
H  H100  1  0.17110000  0.88850000  0.33930000  1.0 0.0608221794
H  H101  1  0.34280000  0.64060000  0.15800000  1.0 0.0608221794
H  H102  1  0.64060000  0.34280000  0.85860000  1.0 0.0608221794
H  H103  1  0.15800000  0.85860000  0.34280000  1.0 0.0608221794
H  H104  1  0.85860000  0.15800000  0.64060000  1.0 0.0608221794
H  H105  1  0.65720000  0.35940000  0.84200000  1.0 0.0608221794
H  H106  1  0.35940000  0.65720000  0.14140000  1.0 0.0608221794
H  H107  1  0.84200000  0.14140000  0.65720000  1.0 0.0608221794
H  H108  1  0.14140000  0.84200000  0.35940000  1.0 0.0608221794
C  C1  1  0.44774000  0.43284000  0.32656000  1.0 0.5813303167
C  C2  1  0.43284000  0.44774000  0.79286000  1.0 0.5813303167
C  C3  1  0.32656000  0.79286000  0.44774000  1.0 0.5813303167
C  C4  1  0.79286000  0.32656000  0.43284000  1.0 0.5813303167
C  C5  1  0.55226000  0.56716000  0.67344000  1.0 0.5813303167
C  C6  1  0.56716000  0.55226000  0.20714000  1.0 0.5813303167
C  C7  1  0.67344000  0.20714000  0.55226000  1.0 0.5813303167
C  C8  1  0.20714000  0.67344000  0.56716000  1.0 0.5813303167
C  C9  1  0.42773000  0.41579000  0.27521000  1.0 -0.0292546965
C  C10  1  0.41579000  0.42773000  0.88127000  1.0 -0.0292546965
C  C11  1  0.27521000  0.88127000  0.42773000  1.0 -0.0292546965
C  C12  1  0.88127000  0.27521000  0.41579000  1.0 -0.0292546965
C  C13  1  0.57227000  0.58421000  0.72479000  1.0 -0.0292546965
C  C14  1  0.58421000  0.57227000  0.11873000  1.0 -0.0292546965
C  C15  1  0.72479000  0.11873000  0.57227000  1.0 -0.0292546965
C  C16  1  0.11873000  0.72479000  0.58421000  1.0 -0.0292546965
C  C17  1  0.38975000  0.47443000  0.22817000  1.0 -0.2007703862
C  C18  1  0.47443000  0.38975000  0.90765000  1.0 -0.2007703862
C  C19  1  0.22817000  0.90765000  0.38975000  1.0 -0.2007703862
C  C20  1  0.90765000  0.22817000  0.47443000  1.0 -0.2007703862
C  C21  1  0.61025000  0.52557000  0.77183000  1.0 -0.2007703862
C  C22  1  0.52557000  0.61025000  0.09235000  1.0 -0.2007703862
C  C23  1  0.77183000  0.09235000  0.61025000  1.0 -0.2007703862
C  C24  1  0.09235000  0.77183000  0.52557000  1.0 -0.2007703862
C  C25  1  0.39172000  0.38334000  0.17786000  1.0 0.1678582751
C  C26  1  0.38334000  0.39172000  0.04708000  1.0 0.1678582751
C  C27  1  0.17786000  0.04708000  0.39172000  1.0 0.1678582751
C  C28  1  0.04708000  0.17786000  0.38334000  1.0 0.1678582751
C  C29  1  0.60828000  0.61666000  0.82214000  1.0 0.1678582751
C  C30  1  0.61666000  0.60828000  0.95292000  1.0 0.1678582751
C  C31  1  0.82214000  0.95292000  0.60828000  1.0 0.1678582751
C  C32  1  0.95292000  0.82214000  0.61666000  1.0 0.1678582751
C  C33  1  0.33605000  0.33605000  0.16395000  1.0 0.1392889295
C  C34  1  0.16395000  0.16395000  0.33605000  1.0 0.1392889295
C  C35  1  0.66395000  0.66395000  0.83605000  1.0 0.1392889295
C  C36  1  0.83605000  0.83605000  0.66395000  1.0 0.1392889295
C  C37  1  0.26789000  0.26789000  0.23211000  1.0 0.044289879
C  C38  1  0.23211000  0.23211000  0.26789000  1.0 0.044289879
C  C39  1  0.73211000  0.73211000  0.76789000  1.0 0.044289879
C  C40  1  0.76789000  0.76789000  0.73211000  1.0 0.044289879
C  C41  1  0.37188000  0.45872000  0.17888000  1.0 -0.2132059462
C  C42  1  0.45872000  0.37188000  0.99052000  1.0 -0.2132059462
C  C43  1  0.17888000  0.99052000  0.37188000  1.0 -0.2132059462
C  C44  1  0.99052000  0.17888000  0.45872000  1.0 -0.2132059462
C  C45  1  0.62812000  0.54128000  0.82112000  1.0 -0.2132059462
C  C46  1  0.54128000  0.62812000  0.00948000  1.0 -0.2132059462
C  C47  1  0.82112000  0.00948000  0.62812000  1.0 -0.2132059462
C  C48  1  0.00948000  0.82112000  0.54128000  1.0 -0.2132059462
C  C49  1  0.44661000  0.34117000  0.27483000  1.0 -0.0789206899
C  C50  1  0.34117000  0.44661000  0.93739000  1.0 -0.0789206899
C  C51  1  0.27483000  0.93739000  0.44661000  1.0 -0.0789206899
C  C52  1  0.93739000  0.27483000  0.34117000  1.0 -0.0789206899
C  C53  1  0.55339000  0.65883000  0.72517000  1.0 -0.0789206899
C  C54  1  0.65883000  0.55339000  0.06261000  1.0 -0.0789206899
C  C55  1  0.72517000  0.06261000  0.55339000  1.0 -0.0789206899
C  C56  1  0.06261000  0.72517000  0.65883000  1.0 -0.0789206899
C  C57  1  0.42983000  0.32395000  0.22505000  1.0 -0.2007703862
C  C58  1  0.32395000  0.42983000  0.02117000  1.0 -0.2007703862
C  C59  1  0.22505000  0.02117000  0.42983000  1.0 -0.2007703862
C  C60  1  0.02117000  0.22505000  0.32395000  1.0 -0.2007703862
C  C61  1  0.57017000  0.67605000  0.77495000  1.0 -0.2007703862
C  C62  1  0.67605000  0.57017000  0.97883000  1.0 -0.2007703862
C  C63  1  0.77495000  0.97883000  0.57017000  1.0 -0.2007703862
C  C64  1  0.97883000  0.77495000  0.67605000  1.0 -0.2007703862
C  C65  1  0.36521000  0.27361000  0.11319000  1.0 -0.1900100871
C  C66  1  0.27361000  0.36521000  0.24799000  1.0 -0.1900100871
C  C67  1  0.11319000  0.24799000  0.36521000  1.0 -0.1900100871
C  C68  1  0.24799000  0.11319000  0.27361000  1.0 -0.1900100871
C  C69  1  0.63479000  0.72639000  0.88681000  1.0 -0.1900100871
C  C70  1  0.72639000  0.63479000  0.75201000  1.0 -0.1900100871
C  C71  1  0.88681000  0.75201000  0.63479000  1.0 -0.1900100871
C  C72  1  0.75201000  0.88681000  0.72639000  1.0 -0.1900100871
C  C73  1  0.33457000  0.23677000  0.14543000  1.0 -0.1436587151
C  C74  1  0.23677000  0.33457000  0.28323000  1.0 -0.1436587151
C  C75  1  0.14543000  0.28323000  0.33457000  1.0 -0.1436587151
C  C76  1  0.28323000  0.14543000  0.23677000  1.0 -0.1436587151
C  C77  1  0.66543000  0.76323000  0.85457000  1.0 -0.1436587151
C  C78  1  0.76323000  0.66543000  0.71677000  1.0 -0.1436587151
C  C79  1  0.85457000  0.71677000  0.66543000  1.0 -0.1436587151
C  C80  1  0.71677000  0.85457000  0.76323000  1.0 -0.1436587151
C  C81  1  0.25270000  0.74730000  0.74730000  1.0 0.4993935102
C  C82  1  0.74730000  0.25270000  0.25270000  1.0 0.5086964839
C  C83  1  0.61650000  0.61650000  0.38350000  1.0 0.3869540566
C  C84  1  0.38350000  0.38350000  0.61650000  1.0 0.3982497924
C  C85  1  0.30720000  0.72640000  0.27940000  1.0 0.1678582751
C  C86  1  0.72640000  0.30720000  0.68700000  1.0 0.1678582751
C  C87  1  0.27940000  0.68700000  0.30720000  1.0 0.1678582751
C  C88  1  0.68700000  0.27940000  0.72640000  1.0 0.1678582751
C  C89  1  0.69280000  0.27360000  0.72060000  1.0 0.1678582751
C  C90  1  0.27360000  0.69280000  0.31300000  1.0 0.1678582751
C  C91  1  0.72060000  0.31300000  0.69280000  1.0 0.1678582751
C  C92  1  0.31300000  0.72060000  0.27360000  1.0 0.1678582751
C  C93  1  0.30450000  0.80570000  0.16830000  1.0 -0.1499736435
C  C94  1  0.80570000  0.30450000  0.72150000  1.0 -0.1499736435
C  C95  1  0.16830000  0.72150000  0.30450000  1.0 -0.1499736435
C  C96  1  0.72150000  0.16830000  0.80570000  1.0 -0.1499736435
C  C97  1  0.69550000  0.19430000  0.83170000  1.0 -0.1499736435
C  C98  1  0.19430000  0.69550000  0.27850000  1.0 -0.1499736435
C  C99  1  0.83170000  0.27850000  0.69550000  1.0 -0.1499736435
C  C100  1  0.27850000  0.83170000  0.19430000  1.0 -0.1499736435
C  C101  1  0.34090000  0.68550000  0.13790000  1.0 -0.2007703862
C  C102  1  0.68550000  0.34090000  0.83570000  1.0 -0.1900100871
C  C103  1  0.13790000  0.83570000  0.34090000  1.0 -0.2007703862
C  C104  1  0.83570000  0.13790000  0.68550000  1.0 -0.1900100871
C  C105  1  0.65910000  0.31450000  0.86210000  1.0 -0.1900100871
C  C106  1  0.31450000  0.65910000  0.16430000  1.0 -0.2007703862
C  C107  1  0.86210000  0.16430000  0.65910000  1.0 -0.1900100871
C  C108  1  0.16430000  0.86210000  0.31450000  1.0 -0.2007703862
N  N1  1  0.37050000  0.37050000  0.12950000  1.0 -0.1436587151
N  N2  1  0.12950000  0.12950000  0.37050000  1.0 -0.1436587151
N  N3  1  0.62950000  0.62950000  0.87050000  1.0 -0.1436587151
N  N4  1  0.87050000  0.87050000  0.62950000  1.0 -0.1436587151
N  N5  1  0.27760000  0.76000000  0.21580000  1.0 0.0166591159
N  N6  1  0.76000000  0.27760000  0.74660000  1.0 0.0166591159
N  N7  1  0.21580000  0.74660000  0.27760000  1.0 0.0166591159
N  N8  1  0.74660000  0.21580000  0.76000000  1.0 0.0166591159
N  N9  1  0.72240000  0.24000000  0.78420000  1.0 0.0166591159
N  N10  1  0.24000000  0.72240000  0.25340000  1.0 0.0166591159
N  N11  1  0.78420000  0.25340000  0.72240000  1.0 0.0166591159
N  N12  1  0.25340000  0.78420000  0.24000000  1.0 0.0166591159
O  O1  1  0.41852000  0.50568000  0.33306000  1.0 -0.6256850413
O  O2  1  0.50568000  0.41852000  0.74274000  1.0 -0.6256850413
O  O3  1  0.33306000  0.74274000  0.41852000  1.0 -0.6256850413
O  O4  1  0.74274000  0.33306000  0.50568000  1.0 -0.6256850413
O  O5  1  0.58148000  0.49432000  0.66694000  1.0 -0.6256850413
O  O6  1  0.49432000  0.58148000  0.25726000  1.0 -0.6256850413
O  O7  1  0.66694000  0.25726000  0.58148000  1.0 -0.6256850413
O  O8  1  0.25726000  0.66694000  0.49432000  1.0 -0.6256850413
O  O9  1  0.35927000  0.64073000  0.55367000  1.0 -0.96979819
O  O10  1  0.64073000  0.35927000  0.44633000  1.0 -0.96979819
O  O11  1  0.55367000  0.44633000  0.35927000  1.0 -0.96979819
O  O12  1  0.44633000  0.55367000  0.64073000  1.0 -0.96979819
O  O13  1  0.49257000  0.37277000  0.35943000  1.0 -0.6186494059
O  O14  1  0.37277000  0.49257000  0.77523000  1.0 -0.6186494059
O  O15  1  0.35943000  0.77523000  0.49257000  1.0 -0.6186494059
O  O16  1  0.77523000  0.35943000  0.37277000  1.0 -0.6186494059
O  O17  1  0.50743000  0.62723000  0.64057000  1.0 -0.6186494059
O  O18  1  0.62723000  0.50743000  0.22477000  1.0 -0.6186494059
O  O19  1  0.64057000  0.22477000  0.50743000  1.0 -0.6186494059
O  O20  1  0.22477000  0.64057000  0.62723000  1.0 -0.6186494059
O  O21  1  0.50236000  0.58836000  0.41164000  1.0 -0.9994662976
O  O22  1  0.58836000  0.50236000  0.49764000  1.0 -0.9994662976
O  O23  1  0.41164000  0.49764000  0.50236000  1.0 -0.9994662976
O  O24  1  0.49764000  0.41164000  0.58836000  1.0 -0.9994662976
O  O25  1  0.30880000  0.68560000  0.33460000  1.0 -0.0966068315
O  O26  1  0.68560000  0.30880000  0.67100000  1.0 -0.0966068315
O  O27  1  0.33460000  0.67100000  0.30880000  1.0 -0.0966068315
O  O28  1  0.67100000  0.33460000  0.68560000  1.0 -0.0966068315
O  O29  1  0.69120000  0.31440000  0.66540000  1.0 -0.0966068315
O  O30  1  0.31440000  0.69120000  0.32900000  1.0 -0.0966068315
O  O31  1  0.66540000  0.32900000  0.69120000  1.0 -0.0966068315
O  O32  1  0.32900000  0.66540000  0.31440000  1.0 -0.0966068315
O  O33  1  0.54748000  0.66208000  0.45252000  1.0 -0.5365371233
O  O34  1  0.66208000  0.54748000  0.33792000  1.0 -0.5365371233
O  O35  1  0.45252000  0.33792000  0.54748000  1.0 -0.5365371233
O  O36  1  0.33792000  0.45252000  0.66208000  1.0 -0.5365371233
O  O37  1  0.31048000  0.74348000  0.68952000  1.0 -0.5699710226
O  O38  1  0.74348000  0.31048000  0.25652000  1.0 -0.5699710226
O  O39  1  0.68952000  0.25652000  0.31048000  1.0 -0.5699710226
O  O40  1  0.25652000  0.68952000  0.74348000  1.0 -0.5699710226
