# DDEC6 charges by PACMAN v1.1 (https://github.com/mtap-research/PACMAN-charge/)
data_XIQZIH_FSR_pacman
_symmetry_space_group_name_H-M   'P 1'
_cell_length_a   12.02530000
_cell_length_b   12.02530000
_cell_length_c   7.13820000
_cell_angle_alpha   83.44980000
_cell_angle_beta   96.55020000
_cell_angle_gamma   93.29210000
_symmetry_Int_Tables_number   1
_chemical_formula_structural   CuH16C20N4ClO4
_chemical_formula_sum   'Cu2 H32 C40 N8 Cl2 O8'
_cell_volume   1017.77532246
_cell_formula_units_Z   2
loop_
 _symmetry_equiv_pos_site_id
 _symmetry_equiv_pos_as_xyz
  1  'x, y, z'
loop_
 _atom_site_type_symbol
 _atom_site_label
 _atom_site_symmetry_multiplicity
 _atom_site_fract_x
 _atom_site_fract_y
 _atom_site_fract_z
 _atom_site_occupancy
 _atom_site_charge
Cu  Cu1  1  0.44204000  0.01212000  0.00664000  1.0 0.2216762266
Cu  Cu2  1  0.01212000  0.44204000  0.99336000  1.0 0.2216762266
H  H1  1  0.45540000  0.21920000  0.73810000  1.0 0.0918360184
H  H2  1  0.21920000  0.45540000  0.26190000  1.0 0.0918360184
H  H3  1  0.55970000  0.30150000  0.50730000  1.0 0.1117048226
H  H4  1  0.30150000  0.55970000  0.49270000  1.0 0.1117048226
H  H5  1  0.79800000  0.09620000  0.71510000  1.0 0.2093806042
H  H6  1  0.09620000  0.79800000  0.28490000  1.0 0.2093806042
H  H7  1  0.68450000  0.02070000  0.93170000  1.0 0.0918360184
H  H8  1  0.02070000  0.68450000  0.06830000  1.0 0.0918360184
H  H9  1  0.79900000  0.12080000  0.32470000  1.0 0.1209746505
H  H10  1  0.12080000  0.79900000  0.67530000  1.0 0.1209746505
H  H11  1  0.91650000  0.20190000  0.12070000  1.0 0.0720449847
H  H12  1  0.20190000  0.91650000  0.87930000  1.0 0.0720449847
H  H13  1  0.88520000  0.49560000  0.29200000  1.0 0.0918360184
H  H14  1  0.49560000  0.88520000  0.70800000  1.0 0.0918360184
H  H15  1  0.76500000  0.42140000  0.49870000  1.0 0.1209746505
H  H16  1  0.42140000  0.76500000  0.50130000  1.0 0.1209746505
H  H17  1  0.47860000  0.20420000  0.22340000  1.0 0.0918360184
H  H18  1  0.20420000  0.47860000  0.77660000  1.0 0.0918360184
H  H19  1  0.39930000  0.28890000  0.44490000  1.0 0.0989470388
H  H20  1  0.28890000  0.39930000  0.55510000  1.0 0.0989470388
H  H21  1  0.12760000  0.09600000  0.35150000  1.0 0.1209746505
H  H22  1  0.09600000  0.12760000  0.64850000  1.0 0.1209746505
H  H23  1  0.21330000  0.01630000  0.13290000  1.0 0.0720449847
H  H24  1  0.01630000  0.21330000  0.86710000  1.0 0.0720449847
H  H25  1  0.61130000  0.01730000  0.35340000  1.0 0.0918360184
H  H26  1  0.01730000  0.61130000  0.64660000  1.0 0.0918360184
H  H27  1  0.72830000  0.90710000  0.55570000  1.0 0.1209746505
H  H28  1  0.90710000  0.72830000  0.44430000  1.0 0.1209746505
H  H29  1  0.62000000  0.65120000  0.25970000  1.0 0.1275509111
H  H30  1  0.65120000  0.62000000  0.74030000  1.0 0.1275509111
H  H31  1  0.50720000  0.76880000  0.06730000  1.0 0.0989470388
H  H32  1  0.76880000  0.50720000  0.93270000  1.0 0.0989470388
C  C1  1  0.52560000  0.19200000  0.73270000  1.0 0.0720449847
C  C2  1  0.19200000  0.52560000  0.26730000  1.0 0.0720449847
C  C3  1  0.58880000  0.24320000  0.59240000  1.0 -0.2498374097
C  C4  1  0.24320000  0.58880000  0.40760000  1.0 -0.2498374097
C  C5  1  0.69410000  0.20810000  0.57910000  1.0 0.1117048226
C  C6  1  0.20810000  0.69410000  0.42090000  1.0 0.1117048226
C  C7  1  0.72720000  0.12380000  0.71250000  1.0 -0.2630227544
C  C8  1  0.12380000  0.72720000  0.28750000  1.0 -0.2630227544
C  C9  1  0.65810000  0.07870000  0.84320000  1.0 0.020928625
C  C10  1  0.07870000  0.65810000  0.15680000  1.0 0.020928625
C  C11  1  0.76820000  0.25860000  0.43490000  1.0 0.0918360184
C  C12  1  0.25860000  0.76820000  0.56510000  1.0 0.0918360184
C  C13  1  0.81510000  0.19750000  0.31940000  1.0 -0.1797710993
C  C14  1  0.19750000  0.81510000  0.68060000  1.0 -0.1797710993
C  C15  1  0.88530000  0.24730000  0.19610000  1.0 0.0570955611
C  C16  1  0.24730000  0.88530000  0.80390000  1.0 0.0570955611
C  C17  1  0.86620000  0.41940000  0.29740000  1.0 0.0049635208
C  C18  1  0.41940000  0.86620000  0.70260000  1.0 0.0049635208
C  C19  1  0.79540000  0.37600000  0.42230000  1.0 -0.1797710993
C  C20  1  0.37600000  0.79540000  0.57770000  1.0 -0.1797710993
C  C21  1  0.40630000  0.18130000  0.24940000  1.0 0.0119792818
C  C22  1  0.18130000  0.40630000  0.75060000  1.0 0.0119792818
C  C23  1  0.35890000  0.23290000  0.38310000  1.0 -0.2109233775
C  C24  1  0.23290000  0.35890000  0.61690000  1.0 -0.2109233775
C  C25  1  0.25170000  0.20090000  0.42400000  1.0 0.0989470388
C  C26  1  0.20090000  0.25170000  0.57600000  1.0 0.0989470388
C  C27  1  0.20010000  0.12050000  0.32900000  1.0 -0.1904151329
C  C28  1  0.12050000  0.20010000  0.67100000  1.0 -0.1904151329
C  C29  1  0.25280000  0.07220000  0.19630000  1.0 0.0332376174
C  C30  1  0.07220000  0.25280000  0.80370000  1.0 0.0332376174
C  C31  1  0.61310000  0.94230000  0.33390000  1.0 0.0430123507
C  C32  1  0.94230000  0.61310000  0.66610000  1.0 0.0430123507
C  C33  1  0.68420000  0.87660000  0.45710000  1.0 -0.1904151329
C  C34  1  0.87660000  0.68420000  0.54290000  1.0 -0.1904151329
C  C35  1  0.68960000  0.76500000  0.43400000  1.0 0.0989470388
C  C36  1  0.76500000  0.68960000  0.56600000  1.0 0.0989470388
C  C37  1  0.61990000  0.72590000  0.28170000  1.0 -0.1904151329
C  C38  1  0.72590000  0.61990000  0.71830000  1.0 -0.1904151329
C  C39  1  0.55250000  0.79690000  0.16720000  1.0 0.020928625
C  C40  1  0.79690000  0.55250000  0.83280000  1.0 0.020928625
N  N1  1  0.55610000  0.11230000  0.85180000  1.0 -0.1904151329
N  N2  1  0.11230000  0.55610000  0.14820000  1.0 -0.1904151329
N  N3  1  0.91260000  0.35680000  0.17540000  1.0 -0.2328637876
N  N4  1  0.35680000  0.91260000  0.82460000  1.0 -0.2328637876
N  N5  1  0.35300000  0.10060000  0.15630000  1.0 -0.1904151329
N  N6  1  0.10060000  0.35300000  0.84370000  1.0 -0.1904151329
N  N7  1  0.54730000  0.90730000  0.18990000  1.0 -0.220817648
N  N8  1  0.90730000  0.54730000  0.81010000  1.0 -0.220817648
Cl  Cl1  1  0.93660000  0.94980000  0.89020000  1.0 0.6613977216
Cl  Cl2  1  0.94980000  0.93660000  0.10980000  1.0 0.6613977216
O  O1  1  0.98810000  0.94650000  0.71700000  1.0 -0.5410780051
O  O2  1  0.94650000  0.98810000  0.28300000  1.0 -0.5410780051
O  O3  1  0.87380000  0.04860000  0.86200000  1.0 -0.220817648
O  O4  1  0.04860000  0.87380000  0.13800000  1.0 -0.220817648
O  O5  1  0.86230000  0.85330000  0.90900000  1.0 -0.2408006229
O  O6  1  0.85330000  0.86230000  0.09100000  1.0 -0.2408006229
O  O7  1  0.02000000  0.95680000  0.04600000  1.0 0.2093806042
O  O8  1  0.95680000  0.02000000  0.95400000  1.0 0.2093806042
