# DDEC6 charges by PACMAN v1.1 (https://github.com/mtap-research/PACMAN-charge/)
data_XIRHUC_FSR_pacman
_symmetry_space_group_name_H-M   'P 1'
_cell_length_a   9.78930000
_cell_length_b   10.36410000
_cell_length_c   10.66490000
_cell_angle_alpha   111.80100000
_cell_angle_beta   100.49800000
_cell_angle_gamma   109.25700000
_symmetry_Int_Tables_number   1
_chemical_formula_structural   NaZn2H26C28(NO6)2
_chemical_formula_sum   'Na1 Zn2 H26 C28 N2 O12'
_cell_volume   889.28987451
_cell_formula_units_Z   1
loop_
 _symmetry_equiv_pos_site_id
 _symmetry_equiv_pos_as_xyz
  1  'x, y, z'
loop_
 _atom_site_type_symbol
 _atom_site_label
 _atom_site_symmetry_multiplicity
 _atom_site_fract_x
 _atom_site_fract_y
 _atom_site_fract_z
 _atom_site_occupancy
 _atom_site_charge
Na  Na1  1  0.50000000  0.50000000  0.50000000  1.0 0.8718798033
Zn  Zn1  1  0.59102000  0.46809000  0.79701000  1.0 0.8337368837
Zn  Zn2  1  0.40898000  0.53191000  0.20299000  1.0 0.8337368837
H  H1  1  0.62970000  0.39850000  0.99100000  1.0 0.2404498628
H  H2  1  0.37030000  0.60150000  0.00900000  1.0 0.2404498628
H  H3  1  0.46320000  0.91470000  0.75720000  1.0 0.1276274328
H  H4  1  0.53680000  0.08530000  0.24280000  1.0 0.1276274328
H  H5  1  0.57110000  0.87030000  0.11680000  1.0 0.1276274328
H  H6  1  0.42890000  0.12970000  0.88320000  1.0 0.123749753
H  H7  1  0.03110000  0.21260000  0.46400000  1.0 0.123749753
H  H8  1  0.96890000  0.78740000  0.53600000  1.0 0.123749753
H  H9  1  0.21210000  0.98730000  0.62180000  1.0 0.1276274328
H  H10  1  0.78790000  0.01270000  0.37820000  1.0 0.1276274328
H  H11  1  0.73450000  0.36230000  0.41870000  1.0 0.1276274328
H  H12  1  0.26550000  0.63770000  0.58130000  1.0 0.1276274328
H  H13  1  0.13500000  0.67550000  0.74050000  1.0 0.123749753
H  H14  1  0.86500000  0.32450000  0.25950000  1.0 0.123749753
H  H15  1  0.70190000  0.24780000  0.83320000  1.0 0.1369601852
H  H16  1  0.29810000  0.75220000  0.16680000  1.0 0.1369601852
H  H17  1  0.80920000  0.31800000  0.99290000  1.0 0.1369601852
H  H18  1  0.19080000  0.68200000  0.00710000  1.0 0.1369601852
H  H19  1  0.86160000  0.39170000  0.89520000  1.0 0.1369601852
H  H20  1  0.13840000  0.60830000  0.10480000  1.0 0.1369601852
H  H21  1  0.75820000  0.65510000  0.12340000  1.0 0.1369601852
H  H22  1  0.24180000  0.34490000  0.87660000  1.0 0.1369601852
H  H23  1  0.89610000  0.64240000  0.07300000  1.0 0.1369601852
H  H24  1  0.10390000  0.35760000  0.92700000  1.0 0.1369601852
H  H25  1  0.84480000  0.56890000  0.17110000  1.0 0.1276274328
H  H26  1  0.15520000  0.43110000  0.82890000  1.0 0.1276274328
C  C1  1  0.54250000  0.72970000  0.83840000  1.0 0.5689381233
C  C2  1  0.45750000  0.27030000  0.16160000  1.0 0.5689381233
C  C3  1  0.51990000  0.86950000  0.92310000  1.0 -0.0115094015
C  C4  1  0.48010000  0.13050000  0.07690000  1.0 -0.0115094015
C  C5  1  0.47780000  0.94890000  0.85460000  1.0 -0.1117400264
C  C6  1  0.52220000  0.05110000  0.14540000  1.0 -0.1117400264
C  C7  1  0.54250000  0.92210000  0.07000000  1.0 -0.1022651311
C  C8  1  0.45750000  0.07790000  0.93000000  1.0 -0.1022651311
C  C9  1  0.30340000  0.25600000  0.61210000  1.0 0.5760668984
C  C10  1  0.69660000  0.74400000  0.38790000  1.0 0.5760668984
C  C11  1  0.14610000  0.12130000  0.55290000  1.0 -0.0115094015
C  C12  1  0.85390000  0.87870000  0.44710000  1.0 -0.0115094015
C  C13  1  0.01880000  0.12720000  0.47900000  1.0 -0.0931267569
C  C14  1  0.98120000  0.87280000  0.52100000  1.0 -0.0931267569
C  C15  1  0.12690000  0.99300000  0.57310000  1.0 -0.1022651311
C  C16  1  0.87310000  0.00700000  0.42690000  1.0 -0.1022651311
C  C17  1  0.83760000  0.54840000  0.70290000  1.0 0.5689381233
C  C18  1  0.16240000  0.45160000  0.29710000  1.0 0.5689381233
C  C19  1  0.92090000  0.52250000  0.59650000  1.0 -0.0115094015
C  C20  1  0.07910000  0.47750000  0.40350000  1.0 -0.0115094015
C  C21  1  0.84120000  0.41760000  0.45160000  1.0 -0.1022651311
C  C22  1  0.15880000  0.58240000  0.54840000  1.0 -0.1022651311
C  C23  1  0.08060000  0.60480000  0.64380000  1.0 -0.1117400264
C  C24  1  0.91940000  0.39520000  0.35620000  1.0 -0.1117400264
C  C25  1  0.77480000  0.34150000  0.91740000  1.0 -0.2961653599
C  C26  1  0.22520000  0.65850000  0.08260000  1.0 -0.2961653599
C  C27  1  0.80950000  0.59050000  0.09440000  1.0 -0.2961653599
C  C28  1  0.19050000  0.40950000  0.90560000  1.0 -0.2932835647
N  N1  1  0.70090000  0.44430000  0.96490000  1.0 -0.2086530456
N  N2  1  0.29910000  0.55570000  0.03510000  1.0 -0.2086530456
O  O1  1  0.55340000  0.70600000  0.72000000  1.0 -0.5684786567
O  O2  1  0.44660000  0.29400000  0.28000000  1.0 -0.5684786567
O  O3  1  0.54910000  0.64470000  0.89900000  1.0 -0.5517377385
O  O4  1  0.45090000  0.35530000  0.10100000  1.0 -0.5517377385
O  O5  1  0.32460000  0.34600000  0.56060000  1.0 -0.5684786567
O  O6  1  0.67540000  0.65400000  0.43940000  1.0 -0.5684786567
O  O7  1  0.40590000  0.26850000  0.71400000  1.0 -0.537534816
O  O8  1  0.59410000  0.73150000  0.28600000  1.0 -0.537534816
O  O9  1  0.69190000  0.45960000  0.65300000  1.0 -0.5964037904
O  O10  1  0.30810000  0.54040000  0.34700000  1.0 -0.5964037904
O  O11  1  0.90880000  0.64700000  0.82850000  1.0 -0.5124616155
O  O12  1  0.09120000  0.35300000  0.17150000  1.0 -0.5124616155
