# DDEC6 charges by PACMAN v1.1 (https://github.com/mtap-research/PACMAN-charge/)
data_XISDOU_ASR_pacman
_symmetry_space_group_name_H-M   'P 1'
_cell_length_a   17.40360000
_cell_length_b   17.40360000
_cell_length_c   27.77600000
_cell_angle_alpha   73.73610000
_cell_angle_beta   106.26400000
_cell_angle_gamma   145.32700000
_symmetry_Int_Tables_number   1
_chemical_formula_structural   GdH27C31S2O7
_chemical_formula_sum   'Gd4 H108 C124 S8 O28'
_cell_volume   4575.43318543
_cell_formula_units_Z   4
loop_
 _symmetry_equiv_pos_site_id
 _symmetry_equiv_pos_as_xyz
  1  'x, y, z'
loop_
 _atom_site_type_symbol
 _atom_site_label
 _atom_site_symmetry_multiplicity
 _atom_site_fract_x
 _atom_site_fract_y
 _atom_site_fract_z
 _atom_site_occupancy
 _atom_site_charge
Gd  Gd1  1  0.33931000  0.45056000  0.99069000  1.0 1.9735982064
Gd  Gd2  1  0.45056000  0.33931000  0.50931000  1.0 1.9735982064
Gd  Gd3  1  0.66070000  0.54944000  0.00931000  1.0 1.9735982064
Gd  Gd4  1  0.54944000  0.66070000  0.49069000  1.0 1.9735982064
H  H1  1  0.09100000  0.47840000  0.87020000  1.0 0.1296513904
H  H2  1  0.47840000  0.09100000  0.62980000  1.0 0.1296513904
H  H3  1  0.90900000  0.52160000  0.12980000  1.0 0.1296513904
H  H4  1  0.52160000  0.90900000  0.37020000  1.0 0.1296513904
H  H5  1  0.03940000  0.56940000  0.82850000  1.0 0.110152185
H  H6  1  0.56940000  0.03940000  0.67150000  1.0 0.110152185
H  H7  1  0.96060000  0.43060000  0.17150000  1.0 0.110152185
H  H8  1  0.43060000  0.96060000  0.32850000  1.0 0.110152185
H  H9  1  0.38790000  0.91970000  0.89070000  1.0 0.110152185
H  H10  1  0.91970000  0.38790000  0.60930000  1.0 0.110152185
H  H11  1  0.61210000  0.08030000  0.10930000  1.0 0.110152185
H  H12  1  0.08030000  0.61210000  0.39070000  1.0 0.110152185
H  H13  1  0.43950000  0.82870000  0.93240000  1.0 0.1296513904
H  H14  1  0.82870000  0.43950000  0.56760000  1.0 0.1296513904
H  H15  1  0.56050000  0.17130000  0.06760000  1.0 0.1296513904
H  H16  1  0.17130000  0.56050000  0.43240000  1.0 0.1296513904
H  H17  1  0.05840000  0.70080000  0.77010000  1.0 0.110152185
H  H18  1  0.70080000  0.05840000  0.72990000  1.0 0.110152185
H  H19  1  0.94160000  0.29920000  0.22990000  1.0 0.110152185
H  H20  1  0.29920000  0.94160000  0.27010000  1.0 0.110152185
H  H21  1  0.06850000  0.93810000  0.77160000  1.0 0.110152185
H  H22  1  0.93810000  0.06850000  0.72840000  1.0 0.110152185
H  H23  1  0.93150000  0.06190000  0.22840000  1.0 0.110152185
H  H24  1  0.06190000  0.93150000  0.27160000  1.0 0.110152185
H  H25  1  0.26700000  0.93180000  0.88370000  1.0 0.11772156
H  H26  1  0.93180000  0.26700000  0.61630000  1.0 0.11772156
H  H27  1  0.73300000  0.06820000  0.11630000  1.0 0.11772156
H  H28  1  0.06820000  0.73300000  0.38370000  1.0 0.11772156
H  H29  1  0.87180000  0.58520000  0.72050000  1.0 0.110152185
H  H30  1  0.58520000  0.87180000  0.77950000  1.0 0.110152185
H  H31  1  0.12820000  0.41480000  0.27950000  1.0 0.110152185
H  H32  1  0.41480000  0.12820000  0.22050000  1.0 0.110152185
H  H33  1  0.73280000  0.50800000  0.64680000  1.0 0.1296513904
H  H34  1  0.50800000  0.73280000  0.85320000  1.0 0.1296513904
H  H35  1  0.26720000  0.49200000  0.35320000  1.0 0.1296513904
H  H36  1  0.49200000  0.26720000  0.14680000  1.0 0.1296513904
H  H37  1  0.88080000  0.84900000  0.61670000  1.0 0.1296513904
H  H38  1  0.84900000  0.88080000  0.88330000  1.0 0.1296513904
H  H39  1  0.11920000  0.15100000  0.38330000  1.0 0.1296513904
H  H40  1  0.15100000  0.11920000  0.11670000  1.0 0.1296513904
H  H41  1  0.02290000  0.92750000  0.68990000  1.0 0.110152185
H  H42  1  0.92750000  0.02290000  0.81010000  1.0 0.110152185
H  H43  1  0.97710000  0.07250000  0.31010000  1.0 0.110152185
H  H44  1  0.07250000  0.97710000  0.18990000  1.0 0.110152185
H  H45  1  0.04950000  0.98070000  0.83700000  1.0 0.110152185
H  H46  1  0.98070000  0.04950000  0.66300000  1.0 0.110152185
H  H47  1  0.95050000  0.01930000  0.16300000  1.0 0.110152185
H  H48  1  0.01930000  0.95050000  0.33700000  1.0 0.110152185
H  H49  1  0.11640000  0.12800000  0.87910000  1.0 0.11772156
H  H50  1  0.12800000  0.11640000  0.62090000  1.0 0.110152185
H  H51  1  0.88360000  0.87200000  0.12090000  1.0 0.11772156
H  H52  1  0.87200000  0.88360000  0.37910000  1.0 0.11772156
H  H53  1  0.46650000  0.29510000  0.92930000  1.0 0.11772156
H  H54  1  0.29510000  0.46650000  0.57070000  1.0 0.11772156
H  H55  1  0.53350000  0.70490000  0.07070000  1.0 0.11772156
H  H56  1  0.70490000  0.53350000  0.42930000  1.0 0.11772156
H  H57  1  0.40190000  0.14950000  0.88690000  1.0 0.11772156
H  H58  1  0.14950000  0.40190000  0.61310000  1.0 0.11772156
H  H59  1  0.59810000  0.85050000  0.11310000  1.0 0.11772156
H  H60  1  0.85050000  0.59810000  0.38690000  1.0 0.11772156
H  H61  1  0.81910000  0.08250000  0.96600000  1.0 0.0707996087
H  H62  1  0.08250000  0.81910000  0.53400000  1.0 0.0707996087
H  H63  1  0.18090000  0.91750000  0.03400000  1.0 0.0707996087
H  H64  1  0.91750000  0.18090000  0.46600000  1.0 0.0707996087
H  H65  1  0.75310000  0.94710000  0.96430000  1.0 0.110152185
H  H66  1  0.94710000  0.75310000  0.53570000  1.0 0.110152185
H  H67  1  0.24690000  0.05290000  0.03570000  1.0 0.110152185
H  H68  1  0.05290000  0.24690000  0.46430000  1.0 0.110152185
H  H69  1  0.82340000  0.01440000  0.01510000  1.0 0.0809762877
H  H70  1  0.01440000  0.82340000  0.48490000  1.0 0.0809762877
H  H71  1  0.17660000  0.98560000  0.98490000  1.0 0.0809762877
H  H72  1  0.98560000  0.17660000  0.51510000  1.0 0.0809762877
H  H73  1  0.02220000  0.25160000  0.88790000  1.0 0.1656368096
H  H74  1  0.25160000  0.02220000  0.61210000  1.0 0.1656368096
H  H75  1  0.97780000  0.74840000  0.11210000  1.0 0.1656368096
H  H76  1  0.74840000  0.97780000  0.38790000  1.0 0.1656368096
H  H77  1  0.94120000  0.10720000  0.90900000  1.0 0.0998177771
H  H78  1  0.10720000  0.94120000  0.59100000  1.0 0.0998177771
H  H79  1  0.05880000  0.89280000  0.09100000  1.0 0.0998177771
H  H80  1  0.89280000  0.05880000  0.40900000  1.0 0.0998177771
H  H81  1  0.86570000  0.12890000  0.89170000  1.0 0.1296513904
H  H82  1  0.12890000  0.86570000  0.60830000  1.0 0.1296513904
H  H83  1  0.13430000  0.87110000  0.10830000  1.0 0.1296513904
H  H84  1  0.87110000  0.13430000  0.39170000  1.0 0.1296513904
H  H85  1  0.87190000  0.04870000  0.03770000  1.0 0.110152185
H  H86  1  0.04870000  0.87190000  0.46230000  1.0 0.110152185
H  H87  1  0.12810000  0.95130000  0.96230000  1.0 0.110152185
H  H88  1  0.95130000  0.12810000  0.53770000  1.0 0.110152185
H  H89  1  0.76800000  0.98920000  0.98980000  1.0 0.0707996087
H  H90  1  0.98920000  0.76800000  0.51020000  1.0 0.0707996087
H  H91  1  0.23200000  0.01080000  0.01020000  1.0 0.0707996087
H  H92  1  0.01080000  0.23200000  0.48980000  1.0 0.0707996087
H  H93  1  0.86550000  0.99510000  0.99780000  1.0 0.0621625986
H  H94  1  0.99510000  0.86550000  0.50220000  1.0 0.0621625986
H  H95  1  0.13450000  0.00490000  0.00220000  1.0 0.0621625986
H  H96  1  0.00490000  0.13450000  0.49780000  1.0 0.0621625986
H  H97  1  0.03020000  0.09140000  0.96900000  1.0 0.0809762877
H  H98  1  0.09140000  0.03020000  0.53100000  1.0 0.0809762877
H  H99  1  0.96980000  0.90860000  0.03100000  1.0 0.0809762877
H  H100  1  0.90860000  0.96980000  0.46900000  1.0 0.0809762877
H  H101  1  0.88500000  0.94000000  0.98050000  1.0 0.110152185
H  H102  1  0.94000000  0.88500000  0.51950000  1.0 0.110152185
H  H103  1  0.11500000  0.06000000  0.01950000  1.0 0.110152185
H  H104  1  0.06000000  0.11500000  0.48050000  1.0 0.110152185
H  H105  1  0.98260000  0.03920000  0.02300000  1.0 0.0929268208
H  H106  1  0.03920000  0.98260000  0.47700000  1.0 0.0929268208
H  H107  1  0.01740000  0.96080000  0.97700000  1.0 0.0929268208
H  H108  1  0.96080000  0.01740000  0.52300000  1.0 0.0929268208
C  C1  1  0.29444000  0.57736000  0.93535000  1.0 0.5413496439
C  C2  1  0.57736000  0.29444000  0.56465000  1.0 0.5413496439
C  C3  1  0.70556000  0.42264000  0.06465000  1.0 0.5413496439
C  C4  1  0.42264000  0.70556000  0.43535000  1.0 0.5413496439
C  C5  1  0.27033000  0.64447000  0.90542000  1.0 -0.0147896437
C  C6  1  0.64447000  0.27033000  0.59458000  1.0 -0.0153603004
C  C7  1  0.72967000  0.35553000  0.09458000  1.0 -0.0147896437
C  C8  1  0.35553000  0.72967000  0.40542000  1.0 -0.0147896437
C  C9  1  0.15054000  0.56686000  0.87431000  1.0 -0.1008084631
C  C10  1  0.56686000  0.15054000  0.62569000  1.0 -0.1008084631
C  C11  1  0.84946000  0.43314000  0.12569000  1.0 -0.1008084631
C  C12  1  0.43314000  0.84946000  0.37431000  1.0 -0.1008084631
C  C13  1  0.11964000  0.62136000  0.84933000  1.0 -0.1578795787
C  C14  1  0.62136000  0.11964000  0.65067000  1.0 -0.1578795787
C  C15  1  0.88036000  0.37864000  0.15067000  1.0 -0.1578795787
C  C16  1  0.37864000  0.88036000  0.34933000  1.0 -0.1578795787
C  C17  1  0.20852000  0.75348000  0.85547000  1.0 0.0707996087
C  C18  1  0.75348000  0.20852000  0.64453000  1.0 0.0707996087
C  C19  1  0.79148000  0.24652000  0.14453000  1.0 0.0707996087
C  C20  1  0.24652000  0.79148000  0.35547000  1.0 0.0707996087
C  C21  1  0.32841000  0.83119000  0.88659000  1.0 -0.1523852073
C  C22  1  0.83119000  0.32841000  0.61341000  1.0 -0.1523852073
C  C23  1  0.67159000  0.16881000  0.11341000  1.0 -0.1523852073
C  C24  1  0.16881000  0.67159000  0.38659000  1.0 -0.1523852073
C  C25  1  0.35931000  0.77669000  0.91156000  1.0 -0.1105232476
C  C26  1  0.77669000  0.35931000  0.58844000  1.0 -0.1105232476
C  C27  1  0.64069000  0.22331000  0.08844000  1.0 -0.1105232476
C  C28  1  0.22331000  0.64069000  0.41156000  1.0 -0.1105232476
C  C29  1  0.16894000  0.80746000  0.83103000  1.0 0.0809762877
C  C30  1  0.80746000  0.16894000  0.66897000  1.0 0.0809762877
C  C31  1  0.83106000  0.19254000  0.16897000  1.0 0.0809762877
C  C32  1  0.19254000  0.83106000  0.33103000  1.0 0.0809762877
C  C33  1  0.08791000  0.76389000  0.78544000  1.0 -0.2003777182
C  C34  1  0.76389000  0.08791000  0.71456000  1.0 -0.2003777182
C  C35  1  0.91209000  0.23611000  0.21456000  1.0 -0.2003777182
C  C36  1  0.23611000  0.91209000  0.28544000  1.0 -0.2003777182
C  C37  1  0.05024000  0.81236000  0.76247000  1.0 0.0809762877
C  C38  1  0.81236000  0.05024000  0.73753000  1.0 0.0809762877
C  C39  1  0.94976000  0.18764000  0.23753000  1.0 0.0809762877
C  C40  1  0.18764000  0.94976000  0.26247000  1.0 0.0809762877
C  C41  1  0.09363000  0.90537000  0.78645000  1.0 -0.2081212643
C  C42  1  0.90537000  0.09363000  0.71355000  1.0 -0.2081212643
C  C43  1  0.90637000  0.09463000  0.21355000  1.0 -0.2081212643
C  C44  1  0.09463000  0.90637000  0.28645000  1.0 -0.2081212643
C  C45  1  0.17418000  0.95042000  0.83230000  1.0 0.0809762877
C  C46  1  0.95042000  0.17418000  0.66770000  1.0 0.0809762877
C  C47  1  0.82582000  0.04958000  0.16770000  1.0 0.0809762877
C  C48  1  0.04958000  0.82582000  0.33230000  1.0 0.0809762877
C  C49  1  0.21174000  0.90106000  0.85358000  1.0 -0.2003777182
C  C50  1  0.90106000  0.21174000  0.64642000  1.0 -0.2003777182
C  C51  1  0.78826000  0.09894000  0.14642000  1.0 -0.2003777182
C  C52  1  0.09894000  0.78826000  0.35358000  1.0 -0.2003777182
C  C53  1  0.96330000  0.76510000  0.71377000  1.0 0.0707996087
C  C54  1  0.76510000  0.96330000  0.78623000  1.0 0.0707996087
C  C55  1  0.03670000  0.23490000  0.28623000  1.0 0.0707996087
C  C56  1  0.23490000  0.03670000  0.21377000  1.0 0.0707996087
C  C57  1  0.87475000  0.63965000  0.69970000  1.0 -0.1578795787
C  C58  1  0.63965000  0.87475000  0.80030000  1.0 -0.1578795787
C  C59  1  0.12525000  0.36035000  0.30030000  1.0 -0.1578795787
C  C60  1  0.36035000  0.12525000  0.19970000  1.0 -0.1523852073
C  C61  1  0.79007000  0.59233000  0.65552000  1.0 -0.0938803684
C  C62  1  0.59233000  0.79007000  0.84448000  1.0 -0.0938803684
C  C63  1  0.20993000  0.40767000  0.34448000  1.0 -0.0938803684
C  C64  1  0.40767000  0.20993000  0.15552000  1.0 -0.0938803684
C  C65  1  0.79029000  0.66971000  0.62437000  1.0 -0.0314890388
C  C66  1  0.66971000  0.79029000  0.87563000  1.0 -0.0314890388
C  C67  1  0.20971000  0.33029000  0.37563000  1.0 -0.0314890388
C  C68  1  0.33029000  0.20971000  0.12437000  1.0 -0.0314890388
C  C69  1  0.87829000  0.79491000  0.63758000  1.0 -0.1162607234
C  C70  1  0.79491000  0.87829000  0.86242000  1.0 -0.1162607234
C  C71  1  0.12171000  0.20509000  0.36242000  1.0 -0.1162607234
C  C72  1  0.20509000  0.12171000  0.13758000  1.0 -0.1162607234
C  C73  1  0.96378000  0.84202000  0.68174000  1.0 -0.1578795787
C  C74  1  0.84202000  0.96378000  0.81826000  1.0 -0.1578795787
C  C75  1  0.03622000  0.15798000  0.31826000  1.0 -0.1578795787
C  C76  1  0.15798000  0.03622000  0.18174000  1.0 -0.1578795787
C  C77  1  0.69266000  0.61474000  0.57780000  1.0 0.6230432932
C  C78  1  0.61474000  0.69266000  0.92220000  1.0 0.6230432932
C  C79  1  0.30734000  0.38526000  0.42220000  1.0 0.6230432932
C  C80  1  0.38526000  0.30734000  0.07780000  1.0 0.6230432932
C  C81  1  0.21810000  0.04810000  0.85770000  1.0 0.0621625986
C  C82  1  0.04810000  0.21810000  0.64230000  1.0 0.0621625986
C  C83  1  0.78190000  0.95190000  0.14230000  1.0 0.0621625986
C  C84  1  0.95190000  0.78190000  0.35770000  1.0 0.0621625986
C  C85  1  0.13371000  0.04369000  0.85557000  1.0 -0.1578795787
C  C86  1  0.04369000  0.13371000  0.64443000  1.0 -0.1578795787
C  C87  1  0.86629000  0.95631000  0.14443000  1.0 -0.1578795787
C  C88  1  0.95631000  0.86629000  0.35557000  1.0 -0.1578795787
C  C89  1  0.17392000  0.13228000  0.88080000  1.0 -0.1105232476
C  C90  1  0.13228000  0.17392000  0.61920000  1.0 -0.1105232476
C  C91  1  0.82608000  0.86772000  0.11920000  1.0 -0.1105232476
C  C92  1  0.86772000  0.82608000  0.38080000  1.0 -0.1162607234
C  C93  1  0.29842000  0.22698000  0.90848000  1.0 -0.0314890388
C  C94  1  0.22698000  0.29842000  0.59152000  1.0 -0.0314890388
C  C95  1  0.70158000  0.77302000  0.09152000  1.0 -0.0314890388
C  C96  1  0.77302000  0.70158000  0.40848000  1.0 -0.0314890388
C  C97  1  0.38247000  0.23193000  0.91063000  1.0 -0.1008084631
C  C98  1  0.23193000  0.38247000  0.58937000  1.0 -0.1008084631
C  C99  1  0.61753000  0.76807000  0.08937000  1.0 -0.1008084631
C  C100  1  0.76807000  0.61753000  0.41063000  1.0 -0.1008084631
C  C101  1  0.34348000  0.14412000  0.88533000  1.0 -0.1523852073
C  C102  1  0.14412000  0.34348000  0.61467000  1.0 -0.1523852073
C  C103  1  0.65652000  0.85588000  0.11467000  1.0 -0.1523852073
C  C104  1  0.85588000  0.65652000  0.38533000  1.0 -0.1523852073
C  C105  1  0.33712000  0.31788000  0.93718000  1.0 0.6114769522
C  C106  1  0.31788000  0.33712000  0.56282000  1.0 0.6114769522
C  C107  1  0.66288000  0.68212000  0.06282000  1.0 0.6114769522
C  C108  1  0.68212000  0.66288000  0.43718000  1.0 0.6114769522
C  C109  1  0.82670000  0.03170000  0.97920000  1.0 -0.2226312216
C  C110  1  0.03170000  0.82670000  0.52080000  1.0 -0.2226312216
C  C111  1  0.17330000  0.96830000  0.02080000  1.0 -0.2226312216
C  C112  1  0.96830000  0.17330000  0.47920000  1.0 -0.2226312216
C  C113  1  0.94880000  0.16900000  0.90740000  1.0 -0.4110005777
C  C114  1  0.16900000  0.94880000  0.59260000  1.0 -0.4110005777
C  C115  1  0.05120000  0.83100000  0.09260000  1.0 -0.4110005777
C  C116  1  0.83100000  0.05120000  0.40740000  1.0 -0.4110005777
C  C117  1  0.85720000  0.04060000  0.00250000  1.0 -0.2003777182
C  C118  1  0.04060000  0.85720000  0.49750000  1.0 -0.2003777182
C  C119  1  0.14280000  0.95940000  0.99750000  1.0 -0.2003777182
C  C120  1  0.95940000  0.14280000  0.50250000  1.0 -0.2003777182
C  C121  1  0.97780000  0.01540000  0.99400000  1.0 -0.2586492058
C  C122  1  0.01540000  0.97780000  0.50600000  1.0 -0.2586492058
C  C123  1  0.02220000  0.98460000  0.00600000  1.0 -0.2586492058
C  C124  1  0.98460000  0.02220000  0.49400000  1.0 -0.2586492058
S  S1  1  0.98337000  0.12603000  0.96493000  1.0 0.2511479054
S  S2  1  0.12603000  0.98337000  0.53507000  1.0 0.2511479054
S  S3  1  0.01663000  0.87397000  0.03507000  1.0 0.2511479054
S  S4  1  0.87397000  0.01663000  0.46493000  1.0 0.2511479054
S  S5  1  0.98030000  0.20510000  0.96940000  1.0 0.2616139446
S  S6  1  0.20510000  0.98030000  0.53060000  1.0 0.2616139446
S  S7  1  0.01970000  0.79490000  0.03060000  1.0 0.2616139446
S  S8  1  0.79490000  0.01970000  0.46940000  1.0 0.2616139446
O  O1  1  0.23353000  0.47407000  0.92087000  1.0 -0.6171627995
O  O2  1  0.47407000  0.23353000  0.57913000  1.0 -0.6171627995
O  O3  1  0.76647000  0.52593000  0.07913000  1.0 -0.6171627995
O  O4  1  0.52593000  0.76647000  0.42087000  1.0 -0.6171627995
O  O5  1  0.37686000  0.62834000  0.97399000  1.0 -0.6125849541
O  O6  1  0.62834000  0.37686000  0.52601000  1.0 -0.6125849541
O  O7  1  0.62314000  0.37166000  0.02601000  1.0 -0.6125849541
O  O8  1  0.37166000  0.62314000  0.47399000  1.0 -0.6125849541
O  O9  1  0.61197000  0.49703000  0.57018000  1.0 -0.6365447249
O  O10  1  0.49703000  0.61197000  0.92982000  1.0 -0.6365447249
O  O11  1  0.38803000  0.50297000  0.42982000  1.0 -0.6365447249
O  O12  1  0.50297000  0.38803000  0.07018000  1.0 -0.6365447249
O  O13  1  0.69889000  0.69131000  0.55090000  1.0 -0.6762787557
O  O14  1  0.69131000  0.69889000  0.94910000  1.0 -0.6762787557
O  O15  1  0.30111000  0.30869000  0.44910000  1.0 -0.6762787557
O  O16  1  0.30869000  0.30111000  0.05090000  1.0 -0.6747437771
O  O17  1  0.44931000  0.40069000  0.96338000  1.0 -0.696503913
O  O18  1  0.40069000  0.44931000  0.53662000  1.0 -0.696503913
O  O19  1  0.55069000  0.59931000  0.03662000  1.0 -0.696503913
O  O20  1  0.59931000  0.55069000  0.46338000  1.0 -0.696503913
O  O21  1  0.25603000  0.30757000  0.93469000  1.0 -0.6295478101
O  O22  1  0.30757000  0.25603000  0.56531000  1.0 -0.6295478101
O  O23  1  0.74397000  0.69243000  0.06531000  1.0 -0.6295478101
O  O24  1  0.69243000  0.74397000  0.43469000  1.0 -0.6295478101
O  O25  1  0.09614000  0.24746000  0.99590000  1.0 -0.4338942524
O  O26  1  0.24746000  0.09614000  0.50410000  1.0 -0.4353020247
O  O27  1  0.90386000  0.75254000  0.00410000  1.0 -0.4353020247
O  O28  1  0.75254000  0.90386000  0.49590000  1.0 -0.4353020247
