# DDEC6 charges by PACMAN v1.1 (https://github.com/mtap-research/PACMAN-charge/)
data_XISDIO_ASR_pacman
_symmetry_space_group_name_H-M   'P 1'
_cell_length_a   17.37130000
_cell_length_b   17.37130000
_cell_length_c   27.81400000
_cell_angle_alpha   73.55890000
_cell_angle_beta   106.44100000
_cell_angle_gamma   145.52300000
_symmetry_Int_Tables_number   1
_chemical_formula_structural   TbH27C31S2O7
_chemical_formula_sum   'Tb4 H108 C124 S8 O28'
_cell_volume   4537.77725429
_cell_formula_units_Z   4
loop_
 _symmetry_equiv_pos_site_id
 _symmetry_equiv_pos_as_xyz
  1  'x, y, z'
loop_
 _atom_site_type_symbol
 _atom_site_label
 _atom_site_symmetry_multiplicity
 _atom_site_fract_x
 _atom_site_fract_y
 _atom_site_fract_z
 _atom_site_occupancy
 _atom_site_charge
Tb  Tb1  1  0.33840000  0.44916000  0.99053000  1.0 2.0064550789
Tb  Tb2  1  0.44916000  0.33840000  0.50947000  1.0 2.0064550789
Tb  Tb3  1  0.66160000  0.55084000  0.00947000  1.0 2.0064550789
Tb  Tb4  1  0.55084000  0.66160000  0.49053000  1.0 2.0064550789
H  H1  1  0.08660000  0.47240000  0.87460000  1.0 0.1282106181
H  H2  1  0.47240000  0.08660000  0.62540000  1.0 0.1282106181
H  H3  1  0.91340000  0.52760000  0.12540000  1.0 0.1282106181
H  H4  1  0.52760000  0.91340000  0.37460000  1.0 0.1282106181
H  H5  1  0.03550000  0.56390000  0.83200000  1.0 0.1097771709
H  H6  1  0.56390000  0.03550000  0.66800000  1.0 0.1097771709
H  H7  1  0.96450000  0.43610000  0.16800000  1.0 0.1097771709
H  H8  1  0.43610000  0.96450000  0.33200000  1.0 0.1097771709
H  H9  1  0.39730000  0.92450000  0.88700000  1.0 0.1097771709
H  H10  1  0.92450000  0.39730000  0.61300000  1.0 0.1097771709
H  H11  1  0.60270000  0.07550000  0.11300000  1.0 0.1097771709
H  H12  1  0.07550000  0.60270000  0.38700000  1.0 0.1097771709
H  H13  1  0.44830000  0.83290000  0.92950000  1.0 0.1282106181
H  H14  1  0.83290000  0.44830000  0.57050000  1.0 0.1282106181
H  H15  1  0.55170000  0.16710000  0.07050000  1.0 0.1282106181
H  H16  1  0.16710000  0.55170000  0.42950000  1.0 0.1282106181
H  H17  1  0.05730000  0.69850000  0.77040000  1.0 0.1097771709
H  H18  1  0.69850000  0.05730000  0.72960000  1.0 0.1097771709
H  H19  1  0.94270000  0.30150000  0.22960000  1.0 0.1097771709
H  H20  1  0.30150000  0.94270000  0.27040000  1.0 0.1097771709
H  H21  1  0.06650000  0.93570000  0.77260000  1.0 0.1097771709
H  H22  1  0.93570000  0.06650000  0.72740000  1.0 0.1097771709
H  H23  1  0.93350000  0.06430000  0.22740000  1.0 0.1097771709
H  H24  1  0.06430000  0.93350000  0.27260000  1.0 0.1097771709
H  H25  1  0.26890000  0.93210000  0.88390000  1.0 0.1097771709
H  H26  1  0.93210000  0.26890000  0.61610000  1.0 0.1097771709
H  H27  1  0.73110000  0.06790000  0.11610000  1.0 0.1097771709
H  H28  1  0.06790000  0.73110000  0.38390000  1.0 0.1097771709
H  H29  1  0.86450000  0.57870000  0.72230000  1.0 0.1097771709
H  H30  1  0.57870000  0.86450000  0.77770000  1.0 0.1097771709
H  H31  1  0.13550000  0.42130000  0.27770000  1.0 0.1097771709
H  H32  1  0.42130000  0.13550000  0.22230000  1.0 0.1097771709
H  H33  1  0.72120000  0.49920000  0.64940000  1.0 0.1282106181
H  H34  1  0.49920000  0.72120000  0.85060000  1.0 0.1282106181
H  H35  1  0.27880000  0.50080000  0.35060000  1.0 0.1282106181
H  H36  1  0.50080000  0.27880000  0.14940000  1.0 0.1282106181
H  H37  1  0.87860000  0.84700000  0.61760000  1.0 0.1211032758
H  H38  1  0.84700000  0.87860000  0.88240000  1.0 0.1211032758
H  H39  1  0.12140000  0.15300000  0.38240000  1.0 0.1211032758
H  H40  1  0.15300000  0.12140000  0.11760000  1.0 0.1211032758
H  H41  1  0.02400000  0.92760000  0.68980000  1.0 0.1097771709
H  H42  1  0.92760000  0.02400000  0.81020000  1.0 0.1097771709
H  H43  1  0.97600000  0.07240000  0.31020000  1.0 0.1097771709
H  H44  1  0.07240000  0.97600000  0.18980000  1.0 0.1097771709
H  H45  1  0.04890000  0.97910000  0.83740000  1.0 0.1097771709
H  H46  1  0.97910000  0.04890000  0.66260000  1.0 0.1097771709
H  H47  1  0.95110000  0.02090000  0.16260000  1.0 0.1097771709
H  H48  1  0.02090000  0.95110000  0.33740000  1.0 0.1097771709
H  H49  1  0.11470000  0.12490000  0.87990000  1.0 0.1097771709
H  H50  1  0.12490000  0.11470000  0.62010000  1.0 0.1097771709
H  H51  1  0.88530000  0.87510000  0.12010000  1.0 0.1097771709
H  H52  1  0.87510000  0.88530000  0.37990000  1.0 0.1097771709
H  H53  1  0.46710000  0.29370000  0.93080000  1.0 0.1211032758
H  H54  1  0.29370000  0.46710000  0.56920000  1.0 0.1211032758
H  H55  1  0.53290000  0.70630000  0.06920000  1.0 0.1211032758
H  H56  1  0.70630000  0.53290000  0.43080000  1.0 0.1211032758
H  H57  1  0.40370000  0.15010000  0.88740000  1.0 0.1211032758
H  H58  1  0.15010000  0.40370000  0.61260000  1.0 0.1211032758
H  H59  1  0.59630000  0.84990000  0.11260000  1.0 0.1211032758
H  H60  1  0.84990000  0.59630000  0.38740000  1.0 0.1211032758
H  H61  1  0.82170000  0.08790000  0.95330000  1.0 0.0618069063
H  H62  1  0.08790000  0.82170000  0.54670000  1.0 0.0618069063
H  H63  1  0.17830000  0.91210000  0.04670000  1.0 0.0618069063
H  H64  1  0.91210000  0.17830000  0.45330000  1.0 0.0618069063
H  H65  1  0.75510000  0.95330000  0.94810000  1.0 0.1097771709
H  H66  1  0.95330000  0.75510000  0.55190000  1.0 0.1097771709
H  H67  1  0.24490000  0.04670000  0.05190000  1.0 0.1097771709
H  H68  1  0.04670000  0.24490000  0.44810000  1.0 0.1097771709
H  H69  1  0.80090000  0.00030000  0.00160000  1.0 0.0543658885
H  H70  1  0.00030000  0.80090000  0.49840000  1.0 0.0543658885
H  H71  1  0.19910000  0.99970000  0.99840000  1.0 0.0543658885
H  H72  1  0.99970000  0.19910000  0.50160000  1.0 0.0543658885
H  H73  1  0.01170000  0.24650000  0.88500000  1.0 0.1553970578
H  H74  1  0.24650000  0.01170000  0.61500000  1.0 0.1553970578
H  H75  1  0.98830000  0.75350000  0.11500000  1.0 0.1553970578
H  H76  1  0.75350000  0.98830000  0.38500000  1.0 0.1553970578
H  H77  1  0.91880000  0.09520000  0.90100000  1.0 0.1044529008
H  H78  1  0.09520000  0.91880000  0.59900000  1.0 0.1044529008
H  H79  1  0.08120000  0.90480000  0.09900000  1.0 0.1044529008
H  H80  1  0.90480000  0.08120000  0.40100000  1.0 0.1044529008
H  H81  1  0.85610000  0.13050000  0.88980000  1.0 0.1211032758
H  H82  1  0.13050000  0.85610000  0.61020000  1.0 0.1211032758
H  H83  1  0.14390000  0.86950000  0.11020000  1.0 0.1211032758
H  H84  1  0.86950000  0.14390000  0.38980000  1.0 0.1211032758
H  H85  1  0.84470000  0.04170000  0.03270000  1.0 0.1097771709
H  H86  1  0.04170000  0.84470000  0.46730000  1.0 0.1097771709
H  H87  1  0.15530000  0.95830000  0.96730000  1.0 0.1097771709
H  H88  1  0.95830000  0.15530000  0.53270000  1.0 0.1097771709
H  H89  1  0.75090000  0.99990000  0.98260000  1.0 0.0709167833
H  H90  1  0.99990000  0.75090000  0.51740000  1.0 0.0709167833
H  H91  1  0.24910000  0.00010000  0.01740000  1.0 0.0709167833
H  H92  1  0.00010000  0.24910000  0.48260000  1.0 0.0709167833
H  H93  1  0.81600000  0.96700000  0.99480000  1.0 0.0904757929
H  H94  1  0.96700000  0.81600000  0.50520000  1.0 0.0904757929
H  H95  1  0.18400000  0.03300000  0.00520000  1.0 0.0807701927
H  H96  1  0.03300000  0.18400000  0.49480000  1.0 0.0807701927
H  H97  1  0.04150000  0.10510000  0.97930000  1.0 0.0904757929
H  H98  1  0.10510000  0.04150000  0.52070000  1.0 0.0904757929
H  H99  1  0.95850000  0.89490000  0.02070000  1.0 0.0904757929
H  H100  1  0.89490000  0.95850000  0.47930000  1.0 0.0904757929
H  H101  1  0.89740000  0.95160000  0.97030000  1.0 0.1097771709
H  H102  1  0.95160000  0.89740000  0.52970000  1.0 0.1097771709
H  H103  1  0.10260000  0.04840000  0.02970000  1.0 0.1097771709
H  H104  1  0.04840000  0.10260000  0.47030000  1.0 0.1097771709
H  H105  1  0.94730000  0.00150000  0.02360000  1.0 0.1097771709
H  H106  1  0.00150000  0.94730000  0.47640000  1.0 0.1097771709
H  H107  1  0.05270000  0.99850000  0.97640000  1.0 0.1097771709
H  H108  1  0.99850000  0.05270000  0.52360000  1.0 0.1097771709
C  C1  1  0.29784000  0.57876000  0.93570000  1.0 0.5415108356
C  C2  1  0.57876000  0.29784000  0.56430000  1.0 0.5415108356
C  C3  1  0.70216000  0.42124000  0.06430000  1.0 0.5415108356
C  C4  1  0.42124000  0.70216000  0.43570000  1.0 0.5415108356
C  C5  1  0.27248000  0.64352000  0.90627000  1.0 -0.031359721
C  C6  1  0.64352000  0.27248000  0.59373000  1.0 -0.031359721
C  C7  1  0.72752000  0.35648000  0.09373000  1.0 -0.031359721
C  C8  1  0.35648000  0.72752000  0.40627000  1.0 -0.031359721
C  C9  1  0.14884000  0.56296000  0.87706000  1.0 -0.1012326868
C  C10  1  0.56296000  0.14884000  0.62294000  1.0 -0.1012326868
C  C11  1  0.85116000  0.43704000  0.12294000  1.0 -0.1012326868
C  C12  1  0.43704000  0.85116000  0.37706000  1.0 -0.1012326868
C  C13  1  0.11833000  0.61787000  0.85156000  1.0 -0.157487422
C  C14  1  0.61787000  0.11833000  0.64844000  1.0 -0.157487422
C  C15  1  0.88167000  0.38213000  0.14844000  1.0 -0.157487422
C  C16  1  0.38213000  0.88167000  0.35156000  1.0 -0.157487422
C  C17  1  0.21134000  0.75326000  0.85528000  1.0 0.0709167833
C  C18  1  0.75326000  0.21134000  0.64472000  1.0 0.0709167833
C  C19  1  0.78866000  0.24674000  0.14472000  1.0 0.0709167833
C  C20  1  0.24674000  0.78866000  0.35528000  1.0 0.0709167833
C  C21  1  0.33497000  0.83383000  0.88449000  1.0 -0.157487422
C  C22  1  0.83383000  0.33497000  0.61551000  1.0 -0.157487422
C  C23  1  0.66503000  0.16617000  0.11551000  1.0 -0.157487422
C  C24  1  0.16617000  0.66503000  0.38449000  1.0 -0.157487422
C  C25  1  0.36559000  0.77901000  0.90999000  1.0 -0.1012326868
C  C26  1  0.77901000  0.36559000  0.59001000  1.0 -0.1012326868
C  C27  1  0.63441000  0.22099000  0.09001000  1.0 -0.1012326868
C  C28  1  0.22099000  0.63441000  0.40999000  1.0 -0.1012326868
C  C29  1  0.16966000  0.80734000  0.83079000  1.0 0.0807701927
C  C30  1  0.80734000  0.16966000  0.66921000  1.0 0.0807701927
C  C31  1  0.83034000  0.19266000  0.16921000  1.0 0.0807701927
C  C32  1  0.19266000  0.83034000  0.33079000  1.0 0.0807701927
C  C33  1  0.08702000  0.76198000  0.78568000  1.0 -0.1987728797
C  C34  1  0.76198000  0.08702000  0.71432000  1.0 -0.1987728797
C  C35  1  0.91298000  0.23802000  0.21432000  1.0 -0.1987728797
C  C36  1  0.23802000  0.91298000  0.28568000  1.0 -0.1987728797
C  C37  1  0.04813000  0.80987000  0.76300000  1.0 0.0807701927
C  C38  1  0.80987000  0.04813000  0.73700000  1.0 0.0807701927
C  C39  1  0.95187000  0.19013000  0.23700000  1.0 0.0807701927
C  C40  1  0.19013000  0.95187000  0.26300000  1.0 0.0807701927
C  C41  1  0.09263000  0.90357000  0.78712000  1.0 -0.2066667972
C  C42  1  0.90357000  0.09263000  0.71288000  1.0 -0.2066667972
C  C43  1  0.90737000  0.09643000  0.21288000  1.0 -0.2066667972
C  C44  1  0.09643000  0.90737000  0.28712000  1.0 -0.2066667972
C  C45  1  0.17527000  0.95033000  0.83257000  1.0 0.0807701927
C  C46  1  0.95033000  0.17527000  0.66743000  1.0 0.0807701927
C  C47  1  0.82473000  0.04967000  0.16743000  1.0 0.0807701927
C  C48  1  0.04967000  0.82473000  0.33257000  1.0 0.0807701927
C  C49  1  0.21322000  0.90138000  0.85375000  1.0 -0.1987728797
C  C50  1  0.90138000  0.21322000  0.64625000  1.0 -0.1987728797
C  C51  1  0.78678000  0.09862000  0.14625000  1.0 -0.1987728797
C  C52  1  0.09862000  0.78678000  0.35375000  1.0 -0.1987728797
C  C53  1  0.96018000  0.76182000  0.71457000  1.0 0.0709167833
C  C54  1  0.76182000  0.96018000  0.78543000  1.0 0.0709167833
C  C55  1  0.03982000  0.23818000  0.28543000  1.0 0.0709167833
C  C56  1  0.23818000  0.03982000  0.21457000  1.0 0.0709167833
C  C57  1  0.86826000  0.63374000  0.70120000  1.0 -0.1523897248
C  C58  1  0.63374000  0.86826000  0.79880000  1.0 -0.1523897248
C  C59  1  0.13174000  0.36626000  0.29880000  1.0 -0.1523897248
C  C60  1  0.36626000  0.13174000  0.20120000  1.0 -0.1523897248
C  C61  1  0.78205000  0.58575000  0.65750000  1.0 -0.0937367787
C  C62  1  0.58575000  0.78205000  0.84250000  1.0 -0.0937367787
C  C63  1  0.21795000  0.41425000  0.34250000  1.0 -0.0937367787
C  C64  1  0.41425000  0.21795000  0.15750000  1.0 -0.0937367787
C  C65  1  0.78567000  0.66573000  0.62557000  1.0 -0.031359721
C  C66  1  0.66573000  0.78567000  0.87443000  1.0 -0.031359721
C  C67  1  0.21433000  0.33427000  0.37443000  1.0 -0.031359721
C  C68  1  0.33427000  0.21433000  0.12557000  1.0 -0.031359721
C  C69  1  0.87581000  0.79259000  0.63846000  1.0 -0.1083646945
C  C70  1  0.79259000  0.87581000  0.86154000  1.0 -0.1083646945
C  C71  1  0.12419000  0.20741000  0.36154000  1.0 -0.1083646945
C  C72  1  0.20741000  0.12419000  0.13846000  1.0 -0.1083646945
C  C73  1  0.96265000  0.84055000  0.68211000  1.0 -0.157487422
C  C74  1  0.84055000  0.96265000  0.81789000  1.0 -0.157487422
C  C75  1  0.03735000  0.15945000  0.31789000  1.0 -0.157487422
C  C76  1  0.15945000  0.03735000  0.18211000  1.0 -0.157487422
C  C77  1  0.68801000  0.61119000  0.57889000  1.0 0.6202849897
C  C78  1  0.61119000  0.68801000  0.92111000  1.0 0.6202849897
C  C79  1  0.31199000  0.38881000  0.42111000  1.0 0.6202849897
C  C80  1  0.38881000  0.31199000  0.07889000  1.0 0.6202849897
C  C81  1  0.21825000  0.04695000  0.85825000  1.0 0.0709167833
C  C82  1  0.04695000  0.21825000  0.64175000  1.0 0.0709167833
C  C83  1  0.78175000  0.95305000  0.14175000  1.0 0.0709167833
C  C84  1  0.95305000  0.78175000  0.35825000  1.0 0.0709167833
C  C85  1  0.13331000  0.04209000  0.85620000  1.0 -0.1523897248
C  C86  1  0.04209000  0.13331000  0.64380000  1.0 -0.1523897248
C  C87  1  0.86669000  0.95791000  0.14380000  1.0 -0.1523897248
C  C88  1  0.95791000  0.86669000  0.35620000  1.0 -0.1523897248
C  C89  1  0.17280000  0.12960000  0.88169000  1.0 -0.1083646945
C  C90  1  0.12960000  0.17280000  0.61831000  1.0 -0.1083646945
C  C91  1  0.82720000  0.87040000  0.11831000  1.0 -0.1083646945
C  C92  1  0.87040000  0.82720000  0.38169000  1.0 -0.1083646945
C  C93  1  0.29778000  0.22442000  0.90982000  1.0 -0.031359721
C  C94  1  0.22442000  0.29778000  0.59018000  1.0 -0.031359721
C  C95  1  0.70222000  0.77558000  0.09018000  1.0 -0.031359721
C  C96  1  0.77558000  0.70222000  0.40982000  1.0 -0.031359721
C  C97  1  0.38285000  0.23055000  0.91190000  1.0 -0.0937367787
C  C98  1  0.23055000  0.38285000  0.58810000  1.0 -0.0937367787
C  C99  1  0.61715000  0.76945000  0.08810000  1.0 -0.0937367787
C  C100  1  0.76945000  0.61715000  0.41190000  1.0 -0.0937367787
C  C101  1  0.34436000  0.14364000  0.88610000  1.0 -0.1523897248
C  C102  1  0.14364000  0.34436000  0.61390000  1.0 -0.1523897248
C  C103  1  0.65564000  0.85636000  0.11390000  1.0 -0.1523897248
C  C104  1  0.85636000  0.65564000  0.38610000  1.0 -0.1523897248
C  C105  1  0.33652000  0.31508000  0.93869000  1.0 0.6119061264
C  C106  1  0.31508000  0.33652000  0.56131000  1.0 0.6119061264
C  C107  1  0.66348000  0.68492000  0.06131000  1.0 0.6119061264
C  C108  1  0.68492000  0.66348000  0.43869000  1.0 0.6119061264
C  C109  1  0.82210000  0.03090000  0.96720000  1.0 -0.2280380277
C  C110  1  0.03090000  0.82210000  0.53280000  1.0 -0.2280380277
C  C111  1  0.17790000  0.96910000  0.03280000  1.0 -0.2280380277
C  C112  1  0.96910000  0.17790000  0.46720000  1.0 -0.2280380277
C  C113  1  0.93560000  0.16240000  0.90350000  1.0 -0.4242538956
C  C114  1  0.16240000  0.93560000  0.59650000  1.0 -0.4242538956
C  C115  1  0.06440000  0.83760000  0.09650000  1.0 -0.4242538956
C  C116  1  0.83760000  0.06440000  0.40350000  1.0 -0.4254831818
C  C117  1  0.83000000  0.03180000  0.99780000  1.0 -0.1987728797
C  C118  1  0.03180000  0.83000000  0.50220000  1.0 -0.1987728797
C  C119  1  0.17000000  0.96820000  0.00220000  1.0 -0.1987728797
C  C120  1  0.96820000  0.17000000  0.49780000  1.0 -0.1987728797
C  C121  1  0.97530000  0.01270000  0.99420000  1.0 -0.2491988388
C  C122  1  0.01270000  0.97530000  0.50580000  1.0 -0.2491988388
C  C123  1  0.02470000  0.98730000  0.00580000  1.0 -0.2491988388
C  C124  1  0.98730000  0.02470000  0.49420000  1.0 -0.2491988388
S  S1  1  0.98409000  0.12431000  0.96470000  1.0 0.2312668006
S  S2  1  0.12431000  0.98409000  0.53530000  1.0 0.2312668006
S  S3  1  0.01591000  0.87569000  0.03530000  1.0 0.2312668006
S  S4  1  0.87569000  0.01591000  0.46470000  1.0 0.2312668006
S  S5  1  0.97290000  0.18970000  0.96710000  1.0 0.3184535655
S  S6  1  0.18970000  0.97290000  0.53290000  1.0 0.3184535655
S  S7  1  0.02710000  0.81030000  0.03290000  1.0 0.3184535655
S  S8  1  0.81030000  0.02710000  0.46710000  1.0 0.3184535655
O  O1  1  0.23064000  0.47076000  0.92304000  1.0 -0.6226197926
O  O2  1  0.47076000  0.23064000  0.57696000  1.0 -0.6226197926
O  O3  1  0.76936000  0.52924000  0.07696000  1.0 -0.6226197926
O  O4  1  0.52924000  0.76936000  0.42304000  1.0 -0.6226197926
O  O5  1  0.38413000  0.63287000  0.97316000  1.0 -0.6125681398
O  O6  1  0.63287000  0.38413000  0.52684000  1.0 -0.6125681398
O  O7  1  0.61587000  0.36713000  0.02684000  1.0 -0.6125681398
O  O8  1  0.36713000  0.61587000  0.47316000  1.0 -0.6125681398
O  O9  1  0.60572000  0.49248000  0.57124000  1.0 -0.6464277354
O  O10  1  0.49248000  0.60572000  0.92876000  1.0 -0.6464277354
O  O11  1  0.39428000  0.50752000  0.42876000  1.0 -0.6464277354
O  O12  1  0.50752000  0.39428000  0.07124000  1.0 -0.6464277354
O  O13  1  0.69602000  0.68898000  0.55159000  1.0 -0.682161316
O  O14  1  0.68898000  0.69602000  0.94841000  1.0 -0.682161316
O  O15  1  0.30398000  0.31102000  0.44841000  1.0 -0.682161316
O  O16  1  0.31102000  0.30398000  0.05159000  1.0 -0.682161316
O  O17  1  0.45001000  0.39879000  0.96461000  1.0 -0.71179907
O  O18  1  0.39879000  0.45001000  0.53539000  1.0 -0.71179907
O  O19  1  0.54999000  0.60121000  0.03539000  1.0 -0.71179907
O  O20  1  0.60121000  0.54999000  0.46461000  1.0 -0.71179907
O  O21  1  0.25506000  0.30434000  0.93633000  1.0 -0.6377547828
O  O22  1  0.30434000  0.25506000  0.56367000  1.0 -0.6377547828
O  O23  1  0.74494000  0.69566000  0.06367000  1.0 -0.6377547828
O  O24  1  0.69566000  0.74494000  0.43633000  1.0 -0.6377547828
O  O25  1  0.09568000  0.24532000  0.99634000  1.0 -0.4556315464
O  O26  1  0.24532000  0.09568000  0.50366000  1.0 -0.4556315464
O  O27  1  0.90432000  0.75468000  0.00366000  1.0 -0.4556315464
O  O28  1  0.75468000  0.90432000  0.49634000  1.0 -0.4556315464
