# DDEC6 charges by PACMAN v1.1 (https://github.com/mtap-research/PACMAN-charge/)
data_XISDUA_ASR_pacman
_symmetry_space_group_name_H-M   'P 1'
_cell_length_a   17.40260000
_cell_length_b   17.40260000
_cell_length_c   27.85200000
_cell_angle_alpha   73.91190000
_cell_angle_beta   106.08800000
_cell_angle_gamma   145.41500000
_symmetry_Int_Tables_number   1
_chemical_formula_structural   EuH27C31S2O7
_chemical_formula_sum   'Eu4 H108 C124 S8 O28'
_cell_volume   4581.84760868
_cell_formula_units_Z   4
loop_
 _symmetry_equiv_pos_site_id
 _symmetry_equiv_pos_as_xyz
  1  'x, y, z'
loop_
 _atom_site_type_symbol
 _atom_site_label
 _atom_site_symmetry_multiplicity
 _atom_site_fract_x
 _atom_site_fract_y
 _atom_site_fract_z
 _atom_site_occupancy
 _atom_site_charge
Eu  Eu1  1  0.33921000  0.45015000  0.99093000  1.0 2.0039130306
Eu  Eu2  1  0.45015000  0.33921000  0.50907000  1.0 2.0039130306
Eu  Eu3  1  0.66079000  0.54985000  0.00907000  1.0 2.0039130306
Eu  Eu4  1  0.54985000  0.66079000  0.49093000  1.0 2.0039130306
H  H1  1  0.09400000  0.47960000  0.87160000  1.0 0.1291142726
H  H2  1  0.47960000  0.09400000  0.62840000  1.0 0.1291142726
H  H3  1  0.90600000  0.52040000  0.12840000  1.0 0.1291142726
H  H4  1  0.52040000  0.90600000  0.37160000  1.0 0.1291142726
H  H5  1  0.04340000  0.57080000  0.82920000  1.0 0.1099562212
H  H6  1  0.57080000  0.04340000  0.67080000  1.0 0.1099562212
H  H7  1  0.95660000  0.42920000  0.17080000  1.0 0.1099562212
H  H8  1  0.42920000  0.95660000  0.32920000  1.0 0.1099562212
H  H9  1  0.39500000  0.92440000  0.88940000  1.0 0.1099562212
H  H10  1  0.92440000  0.39500000  0.61060000  1.0 0.1099562212
H  H11  1  0.60500000  0.07560000  0.11060000  1.0 0.1099562212
H  H12  1  0.07560000  0.60500000  0.38940000  1.0 0.1099562212
H  H13  1  0.44570000  0.83310000  0.93170000  1.0 0.1291142726
H  H14  1  0.83310000  0.44570000  0.56830000  1.0 0.1291142726
H  H15  1  0.55430000  0.16690000  0.06830000  1.0 0.1291142726
H  H16  1  0.16690000  0.55430000  0.43170000  1.0 0.1291142726
H  H17  1  0.05560000  0.69860000  0.76930000  1.0 0.1099562212
H  H18  1  0.69860000  0.05560000  0.73070000  1.0 0.1099562212
H  H19  1  0.94440000  0.30140000  0.23070000  1.0 0.1099562212
H  H20  1  0.30140000  0.94440000  0.26930000  1.0 0.1099562212
H  H21  1  0.06440000  0.93320000  0.77230000  1.0 0.1099562212
H  H22  1  0.93320000  0.06440000  0.72770000  1.0 0.1099562212
H  H23  1  0.93560000  0.06680000  0.22770000  1.0 0.1099562212
H  H24  1  0.06680000  0.93560000  0.27230000  1.0 0.1099562212
H  H25  1  0.27140000  0.93480000  0.88300000  1.0 0.1099562212
H  H26  1  0.93480000  0.27140000  0.61700000  1.0 0.1099562212
H  H27  1  0.72860000  0.06520000  0.11700000  1.0 0.1099562212
H  H28  1  0.06520000  0.72860000  0.38300000  1.0 0.1099562212
H  H29  1  0.87430000  0.58730000  0.72200000  1.0 0.1099562212
H  H30  1  0.58730000  0.87430000  0.77800000  1.0 0.1099562212
H  H31  1  0.12570000  0.41270000  0.27800000  1.0 0.1099562212
H  H32  1  0.41270000  0.12570000  0.22200000  1.0 0.1099562212
H  H33  1  0.73020000  0.50480000  0.64760000  1.0 0.1291142726
H  H34  1  0.50480000  0.73020000  0.85240000  1.0 0.1291142726
H  H35  1  0.26980000  0.49520000  0.35240000  1.0 0.1291142726
H  H36  1  0.49520000  0.26980000  0.14760000  1.0 0.1291142726
H  H37  1  0.87620000  0.84540000  0.61780000  1.0 0.1210355859
H  H38  1  0.84540000  0.87620000  0.88220000  1.0 0.1210355859
H  H39  1  0.12380000  0.15460000  0.38220000  1.0 0.1210355859
H  H40  1  0.15460000  0.12380000  0.11780000  1.0 0.1210355859
H  H41  1  0.02770000  0.93090000  0.68940000  1.0 0.1015694802
H  H42  1  0.93090000  0.02770000  0.81060000  1.0 0.1015694802
H  H43  1  0.97230000  0.06910000  0.31060000  1.0 0.1015694802
H  H44  1  0.06910000  0.97230000  0.18940000  1.0 0.1015694802
H  H45  1  0.04960000  0.97820000  0.83810000  1.0 0.1099562212
H  H46  1  0.97820000  0.04960000  0.66190000  1.0 0.1099562212
H  H47  1  0.95040000  0.02180000  0.16190000  1.0 0.1099562212
H  H48  1  0.02180000  0.95040000  0.33810000  1.0 0.1099562212
H  H49  1  0.11460000  0.12500000  0.87820000  1.0 0.1099562212
H  H50  1  0.12500000  0.11460000  0.62180000  1.0 0.1099562212
H  H51  1  0.88540000  0.87500000  0.12180000  1.0 0.1099562212
H  H52  1  0.87500000  0.88540000  0.37820000  1.0 0.1099562212
H  H53  1  0.46630000  0.29670000  0.92790000  1.0 0.1210355859
H  H54  1  0.29670000  0.46630000  0.57210000  1.0 0.1210355859
H  H55  1  0.53370000  0.70330000  0.07210000  1.0 0.1210355859
H  H56  1  0.70330000  0.53370000  0.42790000  1.0 0.1210355859
H  H57  1  0.39890000  0.14610000  0.88650000  1.0 0.1099562212
H  H58  1  0.14610000  0.39890000  0.61350000  1.0 0.1210355859
H  H59  1  0.60110000  0.85390000  0.11350000  1.0 0.1210355859
H  H60  1  0.85390000  0.60110000  0.38650000  1.0 0.1210355859
H  H61  1  0.81480000  0.08120000  0.96150000  1.0 0.0640541469
H  H62  1  0.08120000  0.81480000  0.53850000  1.0 0.0640541469
H  H63  1  0.18520000  0.91880000  0.03850000  1.0 0.0640541469
H  H64  1  0.91880000  0.18520000  0.46150000  1.0 0.0640541469
H  H65  1  0.74970000  0.94690000  0.95820000  1.0 0.1210355859
H  H66  1  0.94690000  0.74970000  0.54180000  1.0 0.1210355859
H  H67  1  0.25030000  0.05310000  0.04180000  1.0 0.1210355859
H  H68  1  0.05310000  0.25030000  0.45820000  1.0 0.1210355859
H  H69  1  0.80900000  0.00540000  0.01020000  1.0 0.0810490069
H  H70  1  0.00540000  0.80900000  0.48980000  1.0 0.0810490069
H  H71  1  0.19100000  0.99460000  0.98980000  1.0 0.0810490069
H  H72  1  0.99460000  0.19100000  0.51020000  1.0 0.0810490069
H  H73  1  0.99370000  0.23330000  0.88530000  1.0 0.1604406392
H  H74  1  0.23330000  0.99370000  0.61470000  1.0 0.1604406392
H  H75  1  0.00630000  0.76670000  0.11470000  1.0 0.1604406392
H  H76  1  0.76670000  0.00630000  0.38530000  1.0 0.1604406392
H  H77  1  0.90720000  0.08720000  0.90780000  1.0 0.1015694802
H  H78  1  0.08720000  0.90720000  0.59220000  1.0 0.1015694802
H  H79  1  0.09280000  0.91280000  0.09220000  1.0 0.1015694802
H  H80  1  0.91280000  0.09280000  0.40780000  1.0 0.1015694802
H  H81  1  0.84260000  0.12040000  0.89570000  1.0 0.1291142726
H  H82  1  0.12040000  0.84260000  0.60430000  1.0 0.1291142726
H  H83  1  0.15740000  0.87960000  0.10430000  1.0 0.1291142726
H  H84  1  0.87960000  0.15740000  0.39570000  1.0 0.1291142726
H  H85  1  0.88310000  0.07970000  0.04240000  1.0 0.1015694802
H  H86  1  0.07970000  0.88310000  0.45760000  1.0 0.1015694802
H  H87  1  0.11690000  0.92030000  0.95760000  1.0 0.1015694802
H  H88  1  0.92030000  0.11690000  0.54240000  1.0 0.1015694802
H  H89  1  0.77000000  0.01260000  0.99750000  1.0 0.0810490069
H  H90  1  0.01260000  0.77000000  0.50250000  1.0 0.0810490069
H  H91  1  0.23000000  0.98740000  0.00250000  1.0 0.0810490069
H  H92  1  0.98740000  0.23000000  0.49750000  1.0 0.0810490069
H  H93  1  0.84880000  0.99560000  0.00780000  1.0 0.0810490069
H  H94  1  0.99560000  0.84880000  0.49220000  1.0 0.0810490069
H  H95  1  0.15120000  0.00440000  0.99220000  1.0 0.0810490069
H  H96  1  0.00440000  0.15120000  0.50780000  1.0 0.0810490069
H  H97  1  0.05050000  0.10710000  0.97390000  1.0 0.087269195
H  H98  1  0.10710000  0.05050000  0.52610000  1.0 0.087269195
H  H99  1  0.94950000  0.89290000  0.02610000  1.0 0.087269195
H  H100  1  0.89290000  0.94950000  0.47390000  1.0 0.087269195
H  H101  1  0.89700000  0.95800000  0.97440000  1.0 0.1015694802
H  H102  1  0.95800000  0.89700000  0.52560000  1.0 0.1015694802
H  H103  1  0.10300000  0.04200000  0.02560000  1.0 0.1015694802
H  H104  1  0.04200000  0.10300000  0.47440000  1.0 0.1015694802
H  H105  1  0.97730000  0.03450000  0.02310000  1.0 0.1015694802
H  H106  1  0.03450000  0.97730000  0.47690000  1.0 0.1015694802
H  H107  1  0.02270000  0.96550000  0.97690000  1.0 0.1015694802
H  H108  1  0.96550000  0.02270000  0.52310000  1.0 0.1015694802
C  C1  1  0.29720000  0.57940000  0.93650000  1.0 0.5360848015
C  C2  1  0.57940000  0.29720000  0.56350000  1.0 0.5360848015
C  C3  1  0.70280000  0.42060000  0.06350000  1.0 0.5360848015
C  C4  1  0.42060000  0.70280000  0.43650000  1.0 0.5360848015
C  C5  1  0.27489000  0.64731000  0.90590000  1.0 -0.0196248278
C  C6  1  0.64731000  0.27489000  0.59410000  1.0 -0.0196248278
C  C7  1  0.72511000  0.35269000  0.09410000  1.0 -0.0196248278
C  C8  1  0.35269000  0.72511000  0.40590000  1.0 -0.0196248278
C  C9  1  0.15440000  0.56880000  0.87510000  1.0 -0.101746494
C  C10  1  0.56880000  0.15440000  0.62490000  1.0 -0.101746494
C  C11  1  0.84560000  0.43120000  0.12490000  1.0 -0.101746494
C  C12  1  0.43120000  0.84560000  0.37510000  1.0 -0.101746494
C  C13  1  0.12400000  0.62340000  0.84970000  1.0 -0.1600753995
C  C14  1  0.62340000  0.12400000  0.65030000  1.0 -0.1600753995
C  C15  1  0.87600000  0.37660000  0.15030000  1.0 -0.1600753995
C  C16  1  0.37660000  0.87600000  0.34970000  1.0 -0.1600753995
C  C17  1  0.21416000  0.75664000  0.85510000  1.0 0.0686938154
C  C18  1  0.75664000  0.21416000  0.64490000  1.0 0.0686938154
C  C19  1  0.78584000  0.24336000  0.14490000  1.0 0.0686938154
C  C20  1  0.24336000  0.78584000  0.35510000  1.0 0.0686938154
C  C21  1  0.33460000  0.83520000  0.88580000  1.0 -0.1600753995
C  C22  1  0.83520000  0.33460000  0.61420000  1.0 -0.1600753995
C  C23  1  0.66540000  0.16480000  0.11420000  1.0 -0.1600753995
C  C24  1  0.16480000  0.66540000  0.38580000  1.0 -0.1600753995
C  C25  1  0.36500000  0.78060000  0.91120000  1.0 -0.101746494
C  C26  1  0.78060000  0.36500000  0.58880000  1.0 -0.101746494
C  C27  1  0.63500000  0.21940000  0.08880000  1.0 -0.101746494
C  C28  1  0.21940000  0.63500000  0.41120000  1.0 -0.101746494
C  C29  1  0.17030000  0.80730000  0.83000000  1.0 0.087269195
C  C30  1  0.80730000  0.17030000  0.67000000  1.0 0.087269195
C  C31  1  0.82970000  0.19270000  0.17000000  1.0 0.087269195
C  C32  1  0.19270000  0.82970000  0.33000000  1.0 0.087269195
C  C33  1  0.08880000  0.76440000  0.78450000  1.0 -0.2195442388
C  C34  1  0.76440000  0.08880000  0.71550000  1.0 -0.2195442388
C  C35  1  0.91120000  0.23560000  0.21550000  1.0 -0.2195442388
C  C36  1  0.23560000  0.91120000  0.28450000  1.0 -0.2195442388
C  C37  1  0.05620000  0.81880000  0.76120000  1.0 0.0810490069
C  C38  1  0.81880000  0.05620000  0.73880000  1.0 0.0810490069
C  C39  1  0.94380000  0.18120000  0.23880000  1.0 0.0810490069
C  C40  1  0.18120000  0.94380000  0.26120000  1.0 0.0810490069
C  C41  1  0.09400000  0.90460000  0.78630000  1.0 -0.2116281254
C  C42  1  0.90460000  0.09400000  0.71370000  1.0 -0.2116281254
C  C43  1  0.90600000  0.09540000  0.21370000  1.0 -0.2116281254
C  C44  1  0.09540000  0.90600000  0.28630000  1.0 -0.2116281254
C  C45  1  0.17530000  0.95230000  0.83240000  1.0 0.087269195
C  C46  1  0.95230000  0.17530000  0.66760000  1.0 0.087269195
C  C47  1  0.82470000  0.04770000  0.16760000  1.0 0.087269195
C  C48  1  0.04770000  0.82470000  0.33240000  1.0 0.087269195
C  C49  1  0.21490000  0.90310000  0.85330000  1.0 -0.2116281254
C  C50  1  0.90310000  0.21490000  0.64670000  1.0 -0.2116281254
C  C51  1  0.78510000  0.09690000  0.14670000  1.0 -0.2116281254
C  C52  1  0.09690000  0.78510000  0.35330000  1.0 -0.2116281254
C  C53  1  0.96230000  0.76390000  0.71370000  1.0 0.0686938154
C  C54  1  0.76390000  0.96230000  0.78630000  1.0 0.0686938154
C  C55  1  0.03770000  0.23610000  0.28630000  1.0 0.0686938154
C  C56  1  0.23610000  0.03770000  0.21370000  1.0 0.0686938154
C  C57  1  0.87620000  0.64060000  0.70090000  1.0 -0.1514332476
C  C58  1  0.64060000  0.87620000  0.79910000  1.0 -0.1514332476
C  C59  1  0.12380000  0.35940000  0.29910000  1.0 -0.1514332476
C  C60  1  0.35940000  0.12380000  0.20090000  1.0 -0.1514332476
C  C61  1  0.78790000  0.58970000  0.65610000  1.0 -0.0899401376
C  C62  1  0.58970000  0.78790000  0.84390000  1.0 -0.0899401376
C  C63  1  0.21210000  0.41030000  0.34390000  1.0 -0.0899401376
C  C64  1  0.41030000  0.21210000  0.15610000  1.0 -0.0899401376
C  C65  1  0.78870000  0.66770000  0.62510000  1.0 -0.0356668284
C  C66  1  0.66770000  0.78870000  0.87490000  1.0 -0.0356668284
C  C67  1  0.21130000  0.33230000  0.37490000  1.0 -0.0356668284
C  C68  1  0.33230000  0.21130000  0.12510000  1.0 -0.0356668284
C  C69  1  0.87630000  0.79310000  0.63820000  1.0 -0.1135604451
C  C70  1  0.79310000  0.87630000  0.86180000  1.0 -0.1135604451
C  C71  1  0.12370000  0.20690000  0.36180000  1.0 -0.1135604451
C  C72  1  0.20690000  0.12370000  0.13820000  1.0 -0.1135604451
C  C73  1  0.96580000  0.84380000  0.68180000  1.0 -0.1600753995
C  C74  1  0.84380000  0.96580000  0.81820000  1.0 -0.1600753995
C  C75  1  0.03420000  0.15620000  0.31820000  1.0 -0.1600753995
C  C76  1  0.15620000  0.03420000  0.18180000  1.0 -0.1600753995
C  C77  1  0.69160000  0.61520000  0.57850000  1.0 0.6233382081
C  C78  1  0.61520000  0.69160000  0.92150000  1.0 0.6233382081
C  C79  1  0.30840000  0.38480000  0.42150000  1.0 0.6233382081
C  C80  1  0.38480000  0.30840000  0.07850000  1.0 0.6233382081
C  C81  1  0.21810000  0.04830000  0.85800000  1.0 0.0540948255
C  C82  1  0.04830000  0.21810000  0.64200000  1.0 0.0540948255
C  C83  1  0.78190000  0.95170000  0.14200000  1.0 0.0540948255
C  C84  1  0.95170000  0.78190000  0.35800000  1.0 0.0540948255
C  C85  1  0.13430000  0.04270000  0.85620000  1.0 -0.1441758978
C  C86  1  0.04270000  0.13430000  0.64380000  1.0 -0.1441758978
C  C87  1  0.86570000  0.95730000  0.14380000  1.0 -0.1441758978
C  C88  1  0.95730000  0.86570000  0.35620000  1.0 -0.1441758978
C  C89  1  0.17300000  0.13000000  0.88050000  1.0 -0.1135604451
C  C90  1  0.13000000  0.17300000  0.61950000  1.0 -0.1135604451
C  C91  1  0.82700000  0.87000000  0.11950000  1.0 -0.1135604451
C  C92  1  0.87000000  0.82700000  0.38050000  1.0 -0.1135604451
C  C93  1  0.29790000  0.22650000  0.90880000  1.0 -0.0320608387
C  C94  1  0.22650000  0.29790000  0.59120000  1.0 -0.0320608387
C  C95  1  0.70210000  0.77350000  0.09120000  1.0 -0.0320608387
C  C96  1  0.77350000  0.70210000  0.40880000  1.0 -0.0320608387
C  C97  1  0.38140000  0.23200000  0.91000000  1.0 -0.101746494
C  C98  1  0.23200000  0.38140000  0.59000000  1.0 -0.101746494
C  C99  1  0.61860000  0.76800000  0.09000000  1.0 -0.101746494
C  C100  1  0.76800000  0.61860000  0.41000000  1.0 -0.101746494
C  C101  1  0.34130000  0.14170000  0.88480000  1.0 -0.1514332476
C  C102  1  0.14170000  0.34130000  0.61520000  1.0 -0.1514332476
C  C103  1  0.65870000  0.85830000  0.11520000  1.0 -0.1514332476
C  C104  1  0.85830000  0.65870000  0.38480000  1.0 -0.1514332476
C  C105  1  0.33410000  0.31670000  0.93700000  1.0 0.6069206302
C  C106  1  0.31670000  0.33410000  0.56300000  1.0 0.6069206302
C  C107  1  0.66590000  0.68330000  0.06300000  1.0 0.6069206302
C  C108  1  0.68330000  0.66590000  0.43700000  1.0 0.6069206302
C  C109  1  0.81980000  0.02820000  0.97500000  1.0 -0.250200435
C  C110  1  0.02820000  0.81980000  0.52500000  1.0 -0.250200435
C  C111  1  0.18020000  0.97180000  0.02500000  1.0 -0.250200435
C  C112  1  0.97180000  0.18020000  0.47500000  1.0 -0.250200435
C  C113  1  0.92430000  0.15570000  0.90740000  1.0 -0.4325661207
C  C114  1  0.15570000  0.92430000  0.59260000  1.0 -0.4325661207
C  C115  1  0.07570000  0.84430000  0.09260000  1.0 -0.4325661207
C  C116  1  0.84430000  0.07570000  0.40740000  1.0 -0.4325661207
C  C117  1  0.85600000  0.05600000  0.00870000  1.0 -0.2195442388
C  C118  1  0.05600000  0.85600000  0.49130000  1.0 -0.2195442388
C  C119  1  0.14400000  0.94400000  0.99130000  1.0 -0.2195442388
C  C120  1  0.94400000  0.14400000  0.50870000  1.0 -0.2195442388
C  C121  1  0.98390000  0.02210000  0.99380000  1.0 -0.2723005856
C  C122  1  0.02210000  0.98390000  0.50620000  1.0 -0.2723005856
C  C123  1  0.01610000  0.97790000  0.00620000  1.0 -0.2723005856
C  C124  1  0.97790000  0.01610000  0.49380000  1.0 -0.2723005856
S  S1  1  0.98140000  0.12500000  0.96560000  1.0 0.303174839
S  S2  1  0.12500000  0.98140000  0.53440000  1.0 0.303174839
S  S3  1  0.01860000  0.87500000  0.03440000  1.0 0.303174839
S  S4  1  0.87500000  0.01860000  0.46560000  1.0 0.303174839
S  S5  1  0.97980000  0.20560000  0.96880000  1.0 0.3502265568
S  S6  1  0.20560000  0.97980000  0.53120000  1.0 0.3502265568
S  S7  1  0.02020000  0.79440000  0.03120000  1.0 0.3567111647
S  S8  1  0.79440000  0.02020000  0.46880000  1.0 0.3502265568
O  O1  1  0.23420000  0.47580000  0.92190000  1.0 -0.6190418596
O  O2  1  0.47580000  0.23420000  0.57810000  1.0 -0.6190418596
O  O3  1  0.76580000  0.52420000  0.07810000  1.0 -0.6190418596
O  O4  1  0.52420000  0.76580000  0.42190000  1.0 -0.6190418596
O  O5  1  0.38130000  0.63310000  0.97350000  1.0 -0.5991480196
O  O6  1  0.63310000  0.38130000  0.52650000  1.0 -0.5991480196
O  O7  1  0.61870000  0.36690000  0.02650000  1.0 -0.5991480196
O  O8  1  0.36690000  0.61870000  0.47350000  1.0 -0.5991480196
O  O9  1  0.61170000  0.49770000  0.56980000  1.0 -0.6629865612
O  O10  1  0.49770000  0.61170000  0.93020000  1.0 -0.6629865612
O  O11  1  0.38830000  0.50230000  0.43020000  1.0 -0.6629865612
O  O12  1  0.50230000  0.38830000  0.06980000  1.0 -0.6629865612
O  O13  1  0.69945000  0.69215000  0.55160000  1.0 -0.6782336379
O  O14  1  0.69215000  0.69945000  0.94840000  1.0 -0.6782336379
O  O15  1  0.30055000  0.30785000  0.44840000  1.0 -0.6782336379
O  O16  1  0.30785000  0.30055000  0.05160000  1.0 -0.6782336379
O  O17  1  0.44700000  0.39880000  0.96370000  1.0 -0.7269541169
O  O18  1  0.39880000  0.44700000  0.53630000  1.0 -0.7269541169
O  O19  1  0.55300000  0.60120000  0.03630000  1.0 -0.7269541169
O  O20  1  0.60120000  0.55300000  0.46370000  1.0 -0.7269541169
O  O21  1  0.25190000  0.30350000  0.93480000  1.0 -0.6190418596
O  O22  1  0.30350000  0.25190000  0.56520000  1.0 -0.6190418596
O  O23  1  0.74810000  0.69650000  0.06520000  1.0 -0.6190418596
O  O24  1  0.69650000  0.74810000  0.43480000  1.0 -0.6190418596
O  O25  1  0.09450000  0.24550000  0.99590000  1.0 -0.4528473163
O  O26  1  0.24550000  0.09450000  0.50410000  1.0 -0.4528473163
O  O27  1  0.90550000  0.75450000  0.00410000  1.0 -0.4528473163
O  O28  1  0.75450000  0.90550000  0.49590000  1.0 -0.4528473163
