# DDEC6 charges by PACMAN v1.1 (https://github.com/mtap-research/PACMAN-charge/)
data_XISKUF_ASR_pacman
_symmetry_space_group_name_H-M   'P 1'
_cell_length_a   9.63750000
_cell_length_b   9.34700000
_cell_length_c   19.19120000
_cell_angle_alpha   90.00000000
_cell_angle_beta   92.70900000
_cell_angle_gamma   90.00000000
_symmetry_Int_Tables_number   1
_chemical_formula_structural   Al4P4O17
_chemical_formula_sum   'Al16 P16 O68'
_cell_volume   1726.84418991
_cell_formula_units_Z   4
loop_
 _symmetry_equiv_pos_site_id
 _symmetry_equiv_pos_as_xyz
  1  'x, y, z'
loop_
 _atom_site_type_symbol
 _atom_site_label
 _atom_site_symmetry_multiplicity
 _atom_site_fract_x
 _atom_site_fract_y
 _atom_site_fract_z
 _atom_site_occupancy
 _atom_site_charge
Al  Al1  1  0.48080000  0.08050000  0.05590000  1.0 1.7136346346
Al  Al2  1  0.01920000  0.58050000  0.94410000  1.0 1.7136346346
Al  Al3  1  0.51920000  0.91950000  0.94410000  1.0 1.7136346346
Al  Al4  1  0.98080000  0.41950000  0.05590000  1.0 1.7136346346
Al  Al5  1  0.72750000  0.84280000  0.08170000  1.0 1.7874312049
Al  Al6  1  0.77250000  0.34280000  0.91830000  1.0 1.7874312049
Al  Al7  1  0.27250000  0.15720000  0.91830000  1.0 1.7874312049
Al  Al8  1  0.22750000  0.65720000  0.08170000  1.0 1.7874312049
Al  Al9  1  0.51090000  0.84460000  0.32540000  1.0 1.747440601
Al  Al10  1  0.98910000  0.34460000  0.67460000  1.0 1.7445382124
Al  Al11  1  0.48910000  0.15540000  0.67460000  1.0 1.7445382124
Al  Al12  1  0.01090000  0.65540000  0.32540000  1.0 1.747440601
Al  Al13  1  0.71470000  0.86080000  0.53400000  1.0 1.8418846375
Al  Al14  1  0.78530000  0.36080000  0.46600000  1.0 1.8418846375
Al  Al15  1  0.28530000  0.13920000  0.46600000  1.0 1.8418846375
Al  Al16  1  0.21470000  0.63920000  0.53400000  1.0 1.8418846375
P  P1  1  0.47110000  0.84920000  0.16660000  1.0 1.5499828305
P  P2  1  0.02890000  0.34920000  0.83340000  1.0 1.5600075669
P  P3  1  0.52890000  0.15080000  0.83340000  1.0 1.5600075669
P  P4  1  0.97110000  0.65080000  0.16660000  1.0 1.5499828305
P  P5  1  0.78350000  0.15520000  0.04800000  1.0 1.5499828305
P  P6  1  0.71650000  0.65520000  0.95200000  1.0 1.5499828305
P  P7  1  0.21650000  0.84480000  0.95200000  1.0 1.5499828305
P  P8  1  0.28350000  0.34480000  0.04800000  1.0 1.5499828305
P  P9  1  0.59950000  0.09360000  0.41920000  1.0 1.5600075669
P  P10  1  0.90050000  0.59360000  0.58080000  1.0 1.5600075669
P  P11  1  0.40050000  0.90640000  0.58080000  1.0 1.5693473862
P  P12  1  0.09950000  0.40640000  0.41920000  1.0 1.5693473862
P  P13  1  0.21980000  0.84320000  0.39500000  1.0 1.5762903339
P  P14  1  0.28020000  0.34320000  0.60500000  1.0 1.5762903339
P  P15  1  0.78020000  0.15680000  0.60500000  1.0 1.5762903339
P  P16  1  0.71980000  0.65680000  0.39500000  1.0 1.5693473862
O  O1  1  0.42000000  0.98480000  0.12940000  1.0 -0.7508446827
O  O2  1  0.08000000  0.48480000  0.87060000  1.0 -0.7508446827
O  O3  1  0.58000000  0.01520000  0.87060000  1.0 -0.7508446827
O  O4  1  0.92000000  0.51520000  0.12940000  1.0 -0.7508446827
O  O5  1  0.62780000  0.82180000  0.16090000  1.0 -0.7857182378
O  O6  1  0.87220000  0.32180000  0.83910000  1.0 -0.7857182378
O  O7  1  0.37220000  0.17820000  0.83910000  1.0 -0.7857182378
O  O8  1  0.12780000  0.67820000  0.16090000  1.0 -0.7849985117
O  O9  1  0.44100000  0.85470000  0.24250000  1.0 -0.7508446827
O  O10  1  0.05900000  0.35470000  0.75750000  1.0 -0.7508446827
O  O11  1  0.55900000  0.14530000  0.75750000  1.0 -0.7508446827
O  O12  1  0.94100000  0.64530000  0.24250000  1.0 -0.7508446827
O  O13  1  0.38460000  0.72440000  0.13470000  1.0 -0.6988933215
O  O14  1  0.11540000  0.22440000  0.86530000  1.0 -0.6988933215
O  O15  1  0.61540000  0.27560000  0.86530000  1.0 -0.6988933215
O  O16  1  0.88460000  0.77560000  0.13470000  1.0 -0.6988933215
O  O17  1  0.64670000  0.18170000  0.08510000  1.0 -0.7508446827
O  O18  1  0.85330000  0.68170000  0.91490000  1.0 -0.7508446827
O  O19  1  0.35330000  0.81830000  0.91490000  1.0 -0.7508446827
O  O20  1  0.14670000  0.31830000  0.08510000  1.0 -0.7508446827
O  O21  1  0.88380000  0.25480000  0.08870000  1.0 -0.6988933215
O  O22  1  0.61620000  0.75480000  0.91130000  1.0 -0.6988933215
O  O23  1  0.11620000  0.74520000  0.91130000  1.0 -0.6988933215
O  O24  1  0.38380000  0.24520000  0.08870000  1.0 -0.6988933215
O  O25  1  0.76430000  0.18000000  0.96910000  1.0 -0.7708586955
O  O26  1  0.73570000  0.68000000  0.03090000  1.0 -0.7708586955
O  O27  1  0.23570000  0.82000000  0.03090000  1.0 -0.7708586955
O  O28  1  0.26430000  0.32000000  0.96910000  1.0 -0.7708586955
O  O29  1  0.83010000  0.00100000  0.06530000  1.0 -0.7561048671
O  O30  1  0.66990000  0.50100000  0.93470000  1.0 -0.7561048671
O  O31  1  0.16990000  0.99900000  0.93470000  1.0 -0.7561048671
O  O32  1  0.33010000  0.49900000  0.06530000  1.0 -0.7561048671
O  O33  1  0.63590000  0.01430000  0.48670000  1.0 -0.8112724279
O  O34  1  0.86410000  0.51430000  0.51330000  1.0 -0.8112724279
O  O35  1  0.36410000  0.98570000  0.51330000  1.0 -0.8112724279
O  O36  1  0.13590000  0.48570000  0.48670000  1.0 -0.8112724279
O  O37  1  0.45950000  0.16690000  0.42730000  1.0 -0.7561048671
O  O38  1  0.04050000  0.66690000  0.57270000  1.0 -0.7561048671
O  O39  1  0.54050000  0.83310000  0.57270000  1.0 -0.7561048671
O  O40  1  0.95950000  0.33310000  0.42730000  1.0 -0.7561048671
O  O41  1  0.70700000  0.21450000  0.41000000  1.0 -0.7708586955
O  O42  1  0.79300000  0.71450000  0.59000000  1.0 -0.7708586955
O  O43  1  0.29300000  0.78550000  0.59000000  1.0 -0.7708586955
O  O44  1  0.20700000  0.28550000  0.41000000  1.0 -0.7708586955
O  O45  1  0.58670000  0.00960000  0.34980000  1.0 -0.8112724279
O  O46  1  0.91330000  0.50960000  0.65020000  1.0 -0.8112724279
O  O47  1  0.41330000  0.99040000  0.65020000  1.0 -0.8112724279
O  O48  1  0.08670000  0.49040000  0.34980000  1.0 -0.8112724279
O  O49  1  0.17290000  0.77190000  0.46120000  1.0 -0.8112724279
O  O50  1  0.32710000  0.27190000  0.53880000  1.0 -0.8037884587
O  O51  1  0.82710000  0.22810000  0.53880000  1.0 -0.8037884587
O  O52  1  0.67290000  0.72810000  0.46120000  1.0 -0.8112724279
O  O53  1  0.37170000  0.80400000  0.37910000  1.0 -0.8153432662
O  O54  1  0.12830000  0.30400000  0.62090000  1.0 -0.8112724279
O  O55  1  0.62830000  0.19600000  0.62090000  1.0 -0.8112724279
O  O56  1  0.87170000  0.69600000  0.37910000  1.0 -0.8153432662
O  O57  1  0.21050000  0.00810000  0.39840000  1.0 -0.7561048671
O  O58  1  0.28950000  0.50810000  0.60160000  1.0 -0.7561048671
O  O59  1  0.78950000  0.99190000  0.60160000  1.0 -0.7561048671
O  O60  1  0.71050000  0.49190000  0.39840000  1.0 -0.7561048671
O  O61  1  0.12990000  0.80010000  0.32860000  1.0 -0.7708586955
O  O62  1  0.37010000  0.30010000  0.67140000  1.0 -0.7708586955
O  O63  1  0.87010000  0.19990000  0.67140000  1.0 -0.7708586955
O  O64  1  0.62990000  0.69990000  0.32860000  1.0 -0.7708586955
O  O65  1  0.57920000  0.91870000  0.03080000  1.0 -1.0730171555
O  O66  1  0.92080000  0.41870000  0.96920000  1.0 -1.0730171555
O  O67  1  0.42080000  0.08130000  0.96920000  1.0 -1.0730171555
O  O68  1  0.07920000  0.58130000  0.03080000  1.0 -1.0730171555
