# DDEC6 charges by PACMAN v1.1 (https://github.com/mtap-research/PACMAN-charge/)
data_XISLAM_FSR_pacman
_symmetry_space_group_name_H-M   'P 1'
_cell_length_a   9.70190000
_cell_length_b   9.27500000
_cell_length_c   19.24910000
_cell_angle_alpha   90.00000000
_cell_angle_beta   93.79300000
_cell_angle_gamma   90.00000000
_symmetry_Int_Tables_number   1
_chemical_formula_structural   Al4P4O17
_chemical_formula_sum   'Al16 P16 O68'
_cell_volume   1728.33848500
_cell_formula_units_Z   4
loop_
 _symmetry_equiv_pos_site_id
 _symmetry_equiv_pos_as_xyz
  1  'x, y, z'
loop_
 _atom_site_type_symbol
 _atom_site_label
 _atom_site_symmetry_multiplicity
 _atom_site_fract_x
 _atom_site_fract_y
 _atom_site_fract_z
 _atom_site_occupancy
 _atom_site_charge
Al  Al1  1  0.48830000  0.07770000  0.05770000  1.0 1.7054400307
Al  Al2  1  0.01170000  0.57770000  0.94230000  1.0 1.7054400307
Al  Al3  1  0.51170000  0.92230000  0.94230000  1.0 1.7030098897
Al  Al4  1  0.98830000  0.42230000  0.05770000  1.0 1.7030098897
Al  Al5  1  0.73310000  0.84280000  0.08050000  1.0 1.7934417885
Al  Al6  1  0.76690000  0.34280000  0.91950000  1.0 1.7966256004
Al  Al7  1  0.26690000  0.15720000  0.91950000  1.0 1.7966256004
Al  Al8  1  0.23310000  0.65720000  0.08050000  1.0 1.7934417885
Al  Al9  1  0.50960000  0.84900000  0.32840000  1.0 1.7573423845
Al  Al10  1  0.99040000  0.34900000  0.67160000  1.0 1.7573423845
Al  Al11  1  0.49040000  0.15100000  0.67160000  1.0 1.7573423845
Al  Al12  1  0.00960000  0.65100000  0.32840000  1.0 1.7573423845
Al  Al13  1  0.69710000  0.85580000  0.53870000  1.0 1.7934417885
Al  Al14  1  0.80290000  0.35580000  0.46130000  1.0 1.7934417885
Al  Al15  1  0.30290000  0.14420000  0.46130000  1.0 1.7966256004
Al  Al16  1  0.19710000  0.64420000  0.53870000  1.0 1.7966256004
P  P1  1  0.47730000  0.84020000  0.16350000  1.0 1.5590486588
P  P2  1  0.02270000  0.34020000  0.83650000  1.0 1.5590486588
P  P3  1  0.52270000  0.15980000  0.83650000  1.0 1.5590486588
P  P4  1  0.97730000  0.65980000  0.16350000  1.0 1.5517017307
P  P5  1  0.78250000  0.15560000  0.05190000  1.0 1.5398217601
P  P6  1  0.71750000  0.65560000  0.94810000  1.0 1.5398217601
P  P7  1  0.21750000  0.84440000  0.94810000  1.0 1.5398217601
P  P8  1  0.28250000  0.34440000  0.05190000  1.0 1.5398217601
P  P9  1  0.60280000  0.10110000  0.41970000  1.0 1.5590486588
P  P10  1  0.89720000  0.60110000  0.58030000  1.0 1.5517017307
P  P11  1  0.39720000  0.89890000  0.58030000  1.0 1.5590486588
P  P12  1  0.10280000  0.39890000  0.41970000  1.0 1.5590486588
P  P13  1  0.22110000  0.84840000  0.39920000  1.0 1.5517017307
P  P14  1  0.27890000  0.34840000  0.60080000  1.0 1.5517017307
P  P15  1  0.77890000  0.15160000  0.60080000  1.0 1.5517017307
P  P16  1  0.72110000  0.65160000  0.39920000  1.0 1.5517017307
O  O1  1  0.43390000  0.98620000  0.13110000  1.0 -0.7522183734
O  O2  1  0.06610000  0.48620000  0.86890000  1.0 -0.7522183734
O  O3  1  0.56610000  0.01380000  0.86890000  1.0 -0.7522183734
O  O4  1  0.93390000  0.51380000  0.13110000  1.0 -0.7522183734
O  O5  1  0.63420000  0.82050000  0.15940000  1.0 -0.7876334328
O  O6  1  0.86580000  0.32050000  0.84060000  1.0 -0.7876334328
O  O7  1  0.36580000  0.17950000  0.84060000  1.0 -0.7876334328
O  O8  1  0.13420000  0.67950000  0.15940000  1.0 -0.7876334328
O  O9  1  0.45920000  0.85320000  0.24070000  1.0 -0.7619951504
O  O10  1  0.04080000  0.35320000  0.75930000  1.0 -0.7619951504
O  O11  1  0.54080000  0.14680000  0.75930000  1.0 -0.7619951504
O  O12  1  0.95920000  0.64680000  0.24070000  1.0 -0.7619951504
O  O13  1  0.39320000  0.71520000  0.12880000  1.0 -0.7413582258
O  O14  1  0.10680000  0.21520000  0.87120000  1.0 -0.7413582258
O  O15  1  0.60680000  0.28480000  0.87120000  1.0 -0.7413582258
O  O16  1  0.89320000  0.78480000  0.12880000  1.0 -0.7413582258
O  O17  1  0.64120000  0.19210000  0.07900000  1.0 -0.7619951504
O  O18  1  0.85880000  0.69210000  0.92100000  1.0 -0.7619951504
O  O19  1  0.35880000  0.80790000  0.92100000  1.0 -0.7619951504
O  O20  1  0.14120000  0.30790000  0.07900000  1.0 -0.7619951504
O  O21  1  0.88920000  0.26420000  0.08170000  1.0 -0.6990631956
O  O22  1  0.61080000  0.76420000  0.91830000  1.0 -0.6990631956
O  O23  1  0.11080000  0.73580000  0.91830000  1.0 -0.6990631956
O  O24  1  0.38920000  0.23580000  0.08170000  1.0 -0.6990631956
O  O25  1  0.77460000  0.17520000  0.97290000  1.0 -0.7522183734
O  O26  1  0.72540000  0.67520000  0.02710000  1.0 -0.7413582258
O  O27  1  0.22540000  0.82480000  0.02710000  1.0 -0.7413582258
O  O28  1  0.27460000  0.32480000  0.97290000  1.0 -0.7522183734
O  O29  1  0.84090000  0.00270000  0.06190000  1.0 -0.7413582258
O  O30  1  0.65910000  0.50270000  0.93810000  1.0 -0.7413582258
O  O31  1  0.15910000  0.99730000  0.93810000  1.0 -0.7413582258
O  O32  1  0.34090000  0.49730000  0.06190000  1.0 -0.7413582258
O  O33  1  0.63310000  0.00250000  0.48260000  1.0 -0.7833017397
O  O34  1  0.86690000  0.50250000  0.51740000  1.0 -0.7833017397
O  O35  1  0.36690000  0.99750000  0.51740000  1.0 -0.7833017397
O  O36  1  0.13310000  0.49750000  0.48260000  1.0 -0.7833017397
O  O37  1  0.45770000  0.16800000  0.41800000  1.0 -0.7833017397
O  O38  1  0.04230000  0.66800000  0.58200000  1.0 -0.7833017397
O  O39  1  0.54230000  0.83200000  0.58200000  1.0 -0.7833017397
O  O40  1  0.95770000  0.33200000  0.41800000  1.0 -0.7833017397
O  O41  1  0.71310000  0.21540000  0.40700000  1.0 -0.7413582258
O  O42  1  0.78690000  0.71540000  0.59300000  1.0 -0.7413582258
O  O43  1  0.28690000  0.78460000  0.59300000  1.0 -0.7413582258
O  O44  1  0.21310000  0.28460000  0.40700000  1.0 -0.7413582258
O  O45  1  0.60310000  0.00370000  0.35480000  1.0 -0.8010008175
O  O46  1  0.89690000  0.50370000  0.64520000  1.0 -0.8010008175
O  O47  1  0.39690000  0.99630000  0.64520000  1.0 -0.8010008175
O  O48  1  0.10310000  0.49630000  0.35480000  1.0 -0.8010008175
O  O49  1  0.20200000  0.75550000  0.46250000  1.0 -0.7689959374
O  O50  1  0.29800000  0.25550000  0.53750000  1.0 -0.7619951504
O  O51  1  0.79800000  0.24450000  0.53750000  1.0 -0.7689959374
O  O52  1  0.70200000  0.74450000  0.46250000  1.0 -0.7689959374
O  O53  1  0.37010000  0.81850000  0.37870000  1.0 -0.8130879242
O  O54  1  0.12990000  0.31850000  0.62130000  1.0 -0.8130879242
O  O55  1  0.62990000  0.18150000  0.62130000  1.0 -0.8130879242
O  O56  1  0.87010000  0.68150000  0.37870000  1.0 -0.8130879242
O  O57  1  0.19040000  0.00710000  0.41460000  1.0 -0.7522183734
O  O58  1  0.30960000  0.50710000  0.58540000  1.0 -0.7522183734
O  O59  1  0.80960000  0.99290000  0.58540000  1.0 -0.7522183734
O  O60  1  0.69040000  0.49290000  0.41460000  1.0 -0.7522183734
O  O61  1  0.10850000  0.80760000  0.34300000  1.0 -0.7689959374
O  O62  1  0.39150000  0.30760000  0.65700000  1.0 -0.7689959374
O  O63  1  0.89150000  0.19240000  0.65700000  1.0 -0.7689959374
O  O64  1  0.60850000  0.69240000  0.34300000  1.0 -0.7689959374
O  O65  1  0.58930000  0.92370000  0.02900000  1.0 -1.0540650028
O  O66  1  0.91070000  0.42370000  0.97100000  1.0 -1.0552580494
O  O67  1  0.41070000  0.07630000  0.97100000  1.0 -1.0552580494
O  O68  1  0.08930000  0.57630000  0.02900000  1.0 -1.0540650028
