# DDEC6 charges by PACMAN v1.1 (https://github.com/mtap-research/PACMAN-charge/)
data_XISPEW02_ASR_pacman
_symmetry_space_group_name_H-M   'P 1'
_cell_length_a   7.51740000
_cell_length_b   14.36760000
_cell_length_c   16.35000000
_cell_angle_alpha   103.16900000
_cell_angle_beta   95.71800000
_cell_angle_gamma   89.96500000
_symmetry_Int_Tables_number   1
_chemical_formula_structural   FeH8Pt(C3N)6
_chemical_formula_sum   'Fe2 H16 Pt2 C36 N12'
_cell_volume   1710.47468750
_cell_formula_units_Z   2
loop_
 _symmetry_equiv_pos_site_id
 _symmetry_equiv_pos_as_xyz
  1  'x, y, z'
loop_
 _atom_site_type_symbol
 _atom_site_label
 _atom_site_symmetry_multiplicity
 _atom_site_fract_x
 _atom_site_fract_y
 _atom_site_fract_z
 _atom_site_occupancy
 _atom_site_charge
Fe  Fe1  1  0.00000000  0.50000000  0.00000000  1.0 0.809627408
Fe  Fe2  1  0.00000000  0.00000000  0.00000000  1.0 0.7806306424
H  H1  1  0.94620000  0.99980000  0.81450000  1.0 0.1174556388
H  H2  1  0.05380000  0.00020000  0.18550000  1.0 0.1174556388
H  H3  1  0.92560000  0.89660000  0.68020000  1.0 0.138035232
H  H4  1  0.07440000  0.10340000  0.31980000  1.0 0.138035232
H  H5  1  0.99430000  0.67310000  0.78900000  1.0 0.1298784357
H  H6  1  0.00570000  0.32690000  0.21100000  1.0 0.1298784357
H  H7  1  0.00880000  0.77910000  0.91700000  1.0 0.1174556388
H  H8  1  0.99120000  0.22090000  0.08300000  1.0 0.1174556388
H  H9  1  0.74750000  0.49350000  0.13650000  1.0 0.1097882755
H  H10  1  0.25250000  0.50650000  0.86350000  1.0 0.1097882755
H  H11  1  0.74200000  0.52460000  0.28540000  1.0 0.1298784357
H  H12  1  0.25800000  0.47540000  0.71460000  1.0 0.1298784357
H  H13  1  0.27070000  0.58310000  0.31130000  1.0 0.138035232
H  H14  1  0.72930000  0.41690000  0.68870000  1.0 0.138035232
H  H15  1  0.26750000  0.55290000  0.16350000  1.0 0.1097882755
H  H16  1  0.73250000  0.44710000  0.83650000  1.0 0.1097882755
Pt  Pt1  1  0.50635000  0.76110000  0.03256000  1.0 0.1482696401
Pt  Pt2  1  0.49365000  0.23890000  0.96744000  1.0 0.1482696401
C  C1  1  0.95700000  0.93430000  0.80920000  1.0 0.1298784357
C  C2  1  0.04300000  0.06570000  0.19080000  1.0 0.1298784357
C  C3  1  0.94700000  0.87170000  0.72790000  1.0 -0.1795316545
C  C4  1  0.05300000  0.12830000  0.27210000  1.0 -0.1795316545
C  C5  1  0.97000000  0.77150000  0.71830000  1.0 0.1886243613
C  C6  1  0.03000000  0.22850000  0.28170000  1.0 0.1886243613
C  C7  1  0.98700000  0.73830000  0.79160000  1.0 -0.1795316545
C  C8  1  0.01300000  0.26170000  0.20840000  1.0 -0.1795316545
C  C9  1  0.99400000  0.80240000  0.86820000  1.0 0.074790919
C  C10  1  0.00600000  0.19760000  0.13180000  1.0 0.074790919
C  C11  1  0.96900000  0.70700000  0.63510000  1.0 -0.0991590677
C  C12  1  0.03100000  0.29300000  0.36490000  1.0 -0.0991590677
C  C13  1  0.98400000  0.66600000  0.56340000  1.0 -0.0452359861
C  C14  1  0.01600000  0.33400000  0.43660000  1.0 -0.0452359861
C  C15  1  0.69900000  0.85780000  0.03750000  1.0 0.0496783907
C  C16  1  0.30100000  0.14220000  0.96250000  1.0 0.0496783907
C  C17  1  0.31200000  0.66360000  0.02590000  1.0 0.0408500822
C  C18  1  0.68800000  0.33640000  0.97410000  1.0 0.0408500822
C  C19  1  0.69000000  0.65940000  0.01810000  1.0 0.0408500822
C  C20  1  0.31000000  0.34060000  0.98190000  1.0 0.0408500822
C  C21  1  0.32000000  0.86170000  0.04120000  1.0 0.0496783907
C  C22  1  0.68000000  0.13830000  0.95880000  1.0 0.0496783907
C  C23  1  0.85200000  0.51300000  0.17190000  1.0 0.0927232856
C  C24  1  0.14800000  0.48700000  0.82810000  1.0 0.0927232856
C  C25  1  0.84700000  0.53200000  0.26170000  1.0 -0.1865743456
C  C26  1  0.15300000  0.46800000  0.73830000  1.0 -0.1865743456
C  C27  1  0.01000000  0.56400000  0.31320000  1.0 0.1631037833
C  C28  1  0.99000000  0.43600000  0.68680000  1.0 0.1631037833
C  C29  1  0.16300000  0.56800000  0.27730000  1.0 -0.1865743456
C  C30  1  0.83700000  0.43200000  0.72270000  1.0 -0.1865743456
C  C31  1  0.16200000  0.54900000  0.18750000  1.0 0.1097882755
C  C32  1  0.83800000  0.45100000  0.81250000  1.0 0.1097882755
C  C33  1  0.00500000  0.59300000  0.40450000  1.0 -0.0661443641
C  C34  1  0.99500000  0.40700000  0.59550000  1.0 -0.0644827133
C  C35  1  0.99400000  0.61860000  0.47770000  1.0 -0.0269893782
C  C36  1  0.00600000  0.38140000  0.52230000  1.0 -0.0269893782
N  N1  1  0.98000000  0.89960000  0.87620000  1.0 -0.210129833
N  N2  1  0.02000000  0.10040000  0.12380000  1.0 -0.210129833
N  N3  1  0.80900000  0.91350000  0.03530000  1.0 -0.3692576098
N  N4  1  0.19100000  0.08650000  0.96470000  1.0 -0.3692576098
N  N5  1  0.20100000  0.60930000  0.02010000  1.0 -0.3692576098
N  N6  1  0.79900000  0.39070000  0.97990000  1.0 -0.3692576098
N  N7  1  0.79600000  0.60210000  0.00700000  1.0 -0.3692576098
N  N8  1  0.20400000  0.39790000  0.99300000  1.0 -0.3692576098
N  N9  1  0.00700000  0.52400000  0.13740000  1.0 -0.2239183916
N  N10  1  0.99300000  0.47600000  0.86260000  1.0 -0.2239183916
N  N11  1  0.21200000  0.91770000  0.03870000  1.0 -0.3629488108
N  N12  1  0.78800000  0.08230000  0.96130000  1.0 -0.3629488108
