# DDEC6 charges by PACMAN v1.1 (https://github.com/mtap-research/PACMAN-charge/)
data_XISPUM01_ASR_pacman
_symmetry_space_group_name_H-M   'P 1'
_cell_length_a   7.48720000
_cell_length_b   14.30240000
_cell_length_c   15.02030000
_cell_angle_alpha   93.60700000
_cell_angle_beta   95.49800000
_cell_angle_gamma   89.93600000
_symmetry_Int_Tables_number   1
_chemical_formula_structural   FePt(C3N)6
_chemical_formula_sum   'Fe2 Pt2 C36 N12'
_cell_volume   1597.85705003
_cell_formula_units_Z   2
loop_
 _symmetry_equiv_pos_site_id
 _symmetry_equiv_pos_as_xyz
  1  'x, y, z'
loop_
 _atom_site_type_symbol
 _atom_site_label
 _atom_site_symmetry_multiplicity
 _atom_site_fract_x
 _atom_site_fract_y
 _atom_site_fract_z
 _atom_site_occupancy
 _atom_site_charge
Fe  Fe1  1  0.50000000  0.50000000  0.50000000  1.0 0.8386860399
Fe  Fe2  1  0.50000000  0.00000000  0.50000000  1.0 0.8386860399
Pt  Pt1  1  0.99319000  0.74109000  0.46230000  1.0 0.1528851746
Pt  Pt2  1  0.00681000  0.25891000  0.53770000  1.0 0.1608335583
C  C1  1  0.46800000  0.44730000  0.29240000  1.0 0.1987748949
C  C2  1  0.53200000  0.55270000  0.70760000  1.0 0.1987748949
C  C3  1  0.46500000  0.38660000  0.21810000  1.0 -0.0919474491
C  C4  1  0.53500000  0.61340000  0.78190000  1.0 -0.0919474491
C  C5  1  0.47500000  0.28990000  0.22100000  1.0 0.1608335583
C  C6  1  0.52500000  0.71010000  0.77900000  1.0 0.1608335583
C  C7  1  0.47600000  0.25300000  0.30350000  1.0 -0.1377969872
C  C8  1  0.52400000  0.74700000  0.69650000  1.0 -0.1377969872
C  C9  1  0.48300000  0.31320000  0.37980000  1.0 0.2146772354
C  C10  1  0.51700000  0.68680000  0.62020000  1.0 0.2172939985
C  C11  1  0.47200000  0.23400000  0.14190000  1.0 -0.0282314877
C  C12  1  0.52800000  0.76600000  0.85810000  1.0 -0.0387066656
C  C13  1  0.48600000  0.18520000  0.07090000  1.0 -0.0282314877
C  C14  1  0.51400000  0.81480000  0.92910000  1.0 -0.0282314877
C  C15  1  0.50300000  0.13200000  0.99640000  1.0 -0.0387066656
C  C16  1  0.49700000  0.86800000  0.00360000  1.0 -0.0387066656
C  C17  1  0.17750000  0.64270000  0.44560000  1.0 0.0595216922
C  C18  1  0.82250000  0.35730000  0.55440000  1.0 0.0595216922
C  C19  1  0.36200000  0.00920000  0.68890000  1.0 0.1987748949
C  C20  1  0.63800000  0.99080000  0.31110000  1.0 0.190067908
C  C21  1  0.36400000  0.03380000  0.78050000  1.0 -0.1313365937
C  C22  1  0.63600000  0.96620000  0.21950000  1.0 -0.1377969872
C  C23  1  0.51300000  0.04800000  0.83100000  1.0 0.1608335583
C  C24  1  0.48700000  0.95200000  0.16900000  1.0 0.1662382691
C  C25  1  0.66300000  0.04060000  0.79580000  1.0 -0.1111934126
C  C26  1  0.33700000  0.95940000  0.20420000  1.0 -0.1111934126
C  C27  1  0.67000000  0.00850000  0.70080000  1.0 0.2299830078
C  C28  1  0.33000000  0.99150000  0.29920000  1.0 0.2299830078
C  C29  1  0.50700000  0.08900000  0.92500000  1.0 0.0134531821
C  C30  1  0.49300000  0.91100000  0.07500000  1.0 0.0190315882
C  C31  1  0.80740000  0.83740000  0.48390000  1.0 0.0545262529
C  C32  1  0.19260000  0.16260000  0.51610000  1.0 0.0595216922
C  C33  1  0.18650000  0.83750000  0.47960000  1.0 0.0595216922
C  C34  1  0.81350000  0.16250000  0.52040000  1.0 0.0545262529
C  C35  1  0.80210000  0.64290000  0.44850000  1.0 0.0698995314
C  C36  1  0.19790000  0.35710000  0.55150000  1.0 0.0698995314
N  N1  1  0.48140000  0.40590000  0.37790000  1.0 -0.2222964333
N  N2  1  0.51860000  0.59410000  0.62210000  1.0 -0.2222964333
N  N3  1  0.28340000  0.58530000  0.44360000  1.0 -0.3413626084
N  N4  1  0.71660000  0.41470000  0.55640000  1.0 -0.3413626084
N  N5  1  0.51200000  0.99930000  0.64900000  1.0 -0.2554764242
N  N6  1  0.48800000  0.00070000  0.35100000  1.0 -0.2547888101
N  N7  1  0.70470000  0.89350000  0.49690000  1.0 -0.3413626084
N  N8  1  0.29530000  0.10650000  0.50310000  1.0 -0.3413626084
N  N9  1  0.29400000  0.89460000  0.48710000  1.0 -0.3413626084
N  N10  1  0.70600000  0.10540000  0.51290000  1.0 -0.3413626084
N  N11  1  0.69370000  0.58670000  0.44840000  1.0 -0.3413626084
N  N12  1  0.30630000  0.41330000  0.55160000  1.0 -0.3413626084
