# DDEC6 charges by PACMAN v1.1 (https://github.com/mtap-research/PACMAN-charge/)
data_XISPUM_ASR_pacman
_symmetry_space_group_name_H-M   'P 1'
_cell_length_a   7.24430000
_cell_length_b   13.81270000
_cell_length_c   15.47460000
_cell_angle_alpha   99.64800000
_cell_angle_beta   92.33100000
_cell_angle_gamma   89.84200000
_symmetry_Int_Tables_number   1
_chemical_formula_structural   FeH8Pt(C3N)6
_chemical_formula_sum   'Fe2 H16 Pt2 C36 N12'
_cell_volume   1525.26292573
_cell_formula_units_Z   2
loop_
 _symmetry_equiv_pos_site_id
 _symmetry_equiv_pos_as_xyz
  1  'x, y, z'
loop_
 _atom_site_type_symbol
 _atom_site_label
 _atom_site_symmetry_multiplicity
 _atom_site_fract_x
 _atom_site_fract_y
 _atom_site_fract_z
 _atom_site_occupancy
 _atom_site_charge
Fe  Fe1  1  0.50000000  0.50000000  0.50000000  1.0 0.5835910962
Fe  Fe2  1  0.50000000  0.00000000  0.50000000  1.0 0.5959817693
H  H1  1  0.48180000  0.51390000  0.30910000  1.0 0.1320107456
H  H2  1  0.51820000  0.48610000  0.69090000  1.0 0.1320107456
H  H3  1  0.47980000  0.41560000  0.17620000  1.0 0.1320107456
H  H4  1  0.52020000  0.58440000  0.82380000  1.0 0.1320107456
H  H5  1  0.49400000  0.18060000  0.29930000  1.0 0.1208841485
H  H6  1  0.50600000  0.81940000  0.70070000  1.0 0.1208841485
H  H7  1  0.49850000  0.28480000  0.43050000  1.0 0.1208841485
H  H8  1  0.50150000  0.71520000  0.56950000  1.0 0.1208841485
H  H9  1  0.23310000  0.00560000  0.64160000  1.0 0.1208841485
H  H10  1  0.76690000  0.99440000  0.35840000  1.0 0.1208841485
H  H11  1  0.22930000  0.03850000  0.79200000  1.0 0.1320107456
H  H12  1  0.77070000  0.96150000  0.20800000  1.0 0.1320107456
H  H13  1  0.78300000  0.04210000  0.80140000  1.0 0.1361391024
H  H14  1  0.21700000  0.95790000  0.19860000  1.0 0.1361391024
H  H15  1  0.77450000  0.00570000  0.64930000  1.0 0.1208841485
H  H16  1  0.22550000  0.99430000  0.35070000  1.0 0.1208841485
Pt  Pt1  1  0.99712000  0.73939000  0.46287000  1.0 0.0502549429
Pt  Pt2  1  0.00288000  0.26061000  0.53713000  1.0 0.0502549429
C  C1  1  0.48530000  0.44620000  0.30680000  1.0 0.0693718747
C  C2  1  0.51470000  0.55380000  0.69320000  1.0 0.0693718747
C  C3  1  0.48370000  0.38780000  0.22700000  1.0 -0.1632330491
C  C4  1  0.51630000  0.61220000  0.77300000  1.0 -0.1632330491
C  C5  1  0.48790000  0.28510000  0.22140000  1.0 0.1611541659
C  C6  1  0.51210000  0.71490000  0.77860000  1.0 0.1611541659
C  C7  1  0.49250000  0.24810000  0.30020000  1.0 -0.1765483766
C  C8  1  0.50750000  0.75190000  0.69980000  1.0 -0.1765483766
C  C9  1  0.49480000  0.31100000  0.37880000  1.0 0.0693718747
C  C10  1  0.50520000  0.68900000  0.62120000  1.0 0.0693718747
C  C11  1  0.48900000  0.22170000  0.13750000  1.0 -0.0698063596
C  C12  1  0.51100000  0.77830000  0.86250000  1.0 -0.0698063596
C  C13  1  0.49250000  0.17390000  0.06600000  1.0 -0.0613255546
C  C14  1  0.50750000  0.82610000  0.93400000  1.0 -0.0613255546
C  C15  1  0.49850000  0.12370000  0.98150000  1.0 -0.0357398716
C  C16  1  0.50150000  0.87630000  0.01850000  1.0 -0.0357398716
C  C17  1  0.19180000  0.63680000  0.45490000  1.0 0.0502549429
C  C18  1  0.80820000  0.36320000  0.54510000  1.0 0.0502549429
C  C19  1  0.34480000  0.01450000  0.67380000  1.0 0.0693718747
C  C20  1  0.65520000  0.98550000  0.32620000  1.0 0.078151703
C  C21  1  0.34130000  0.03500000  0.76430000  1.0 -0.1737628801
C  C22  1  0.65870000  0.96500000  0.23570000  1.0 -0.1737628801
C  C23  1  0.50650000  0.05030000  0.81360000  1.0 0.1611541659
C  C24  1  0.49350000  0.94970000  0.18640000  1.0 0.1611541659
C  C25  1  0.67020000  0.03680000  0.77000000  1.0 -0.1765483766
C  C26  1  0.32980000  0.96320000  0.23000000  1.0 -0.1765483766
C  C27  1  0.66410000  0.01490000  0.67810000  1.0 0.078151703
C  C28  1  0.33590000  0.98510000  0.32190000  1.0 0.078151703
C  C29  1  0.50290000  0.08490000  0.90660000  1.0 -0.0613255546
C  C30  1  0.49710000  0.91510000  0.09340000  1.0 -0.0613255546
C  C31  1  0.80340000  0.84200000  0.47990000  1.0 0.0273665079
C  C32  1  0.19660000  0.15800000  0.52010000  1.0 0.0273665079
C  C33  1  0.19450000  0.84150000  0.47720000  1.0 0.0273665079
C  C34  1  0.80550000  0.15850000  0.52280000  1.0 0.0273665079
C  C35  1  0.80350000  0.63720000  0.45700000  1.0 0.0413214063
C  C36  1  0.19650000  0.36280000  0.54300000  1.0 0.0413214063
N  N1  1  0.49180000  0.41050000  0.38400000  1.0 -0.1321340575
N  N2  1  0.50820000  0.58950000  0.61600000  1.0 -0.1321340575
N  N3  1  0.30630000  0.58110000  0.46100000  1.0 -0.3022507801
N  N4  1  0.69370000  0.41890000  0.53900000  1.0 -0.3022507801
N  N5  1  0.68900000  0.90010000  0.48990000  1.0 -0.3082756076
N  N6  1  0.31100000  0.09990000  0.51010000  1.0 -0.3082756076
N  N7  1  0.31010000  0.89950000  0.48610000  1.0 -0.3082756076
N  N8  1  0.68990000  0.10050000  0.51390000  1.0 -0.3082756076
N  N9  1  0.50330000  0.00680000  0.63000000  1.0 -0.1375225632
N  N10  1  0.49670000  0.99320000  0.37000000  1.0 -0.1375225632
N  N11  1  0.68750000  0.58150000  0.46250000  1.0 -0.3082756076
N  N12  1  0.31250000  0.41850000  0.53750000  1.0 -0.3082756076
