# DDEC6 charges by PACMAN v1.1 (https://github.com/mtap-research/PACMAN-charge/)
data_XISPEW_ASR_pacman
_symmetry_space_group_name_H-M   'P 1'
_cell_length_a   7.24520000
_cell_length_b   13.97060000
_cell_length_c   16.37790000
_cell_angle_alpha   106.46900000
_cell_angle_beta   96.32200000
_cell_angle_gamma   89.99800000
_symmetry_Int_Tables_number   1
_chemical_formula_structural   FeH8Pt(C3N)6
_chemical_formula_sum   'Fe2 H16 Pt2 C36 N12'
_cell_volume   1579.24130007
_cell_formula_units_Z   2
loop_
 _symmetry_equiv_pos_site_id
 _symmetry_equiv_pos_as_xyz
  1  'x, y, z'
loop_
 _atom_site_type_symbol
 _atom_site_label
 _atom_site_symmetry_multiplicity
 _atom_site_fract_x
 _atom_site_fract_y
 _atom_site_fract_z
 _atom_site_occupancy
 _atom_site_charge
Fe  Fe1  1  0.00000000  0.50000000  0.00000000  1.0 0.5958889212
Fe  Fe2  1  0.00000000  0.00000000  0.00000000  1.0 0.5868533935
H  H1  1  0.94560000  0.00790000  0.82060000  1.0 0.1301062362
H  H2  1  0.05440000  0.99210000  0.17940000  1.0 0.1301062362
H  H3  1  0.92620000  0.90320000  0.68270000  1.0 0.1301062362
H  H4  1  0.07380000  0.09680000  0.31730000  1.0 0.1301062362
H  H5  1  0.99190000  0.66960000  0.78010000  1.0 0.1301062362
H  H6  1  0.00810000  0.33040000  0.21990000  1.0 0.1208543139
H  H7  1  0.00030000  0.77940000  0.91580000  1.0 0.1208543139
H  H8  1  0.99970000  0.22060000  0.08420000  1.0 0.1208543139
H  H9  1  0.73820000  0.49890000  0.12650000  1.0 0.1208543139
H  H10  1  0.26180000  0.50110000  0.87350000  1.0 0.1208543139
H  H11  1  0.73220000  0.52820000  0.27160000  1.0 0.1301062362
H  H12  1  0.26780000  0.47180000  0.72840000  1.0 0.1301062362
H  H13  1  0.28480000  0.58450000  0.30350000  1.0 0.1359803463
H  H14  1  0.71520000  0.41550000  0.69650000  1.0 0.1359803463
H  H15  1  0.27760000  0.54690000  0.15620000  1.0 0.1208543139
H  H16  1  0.72240000  0.45310000  0.84380000  1.0 0.1208543139
Pt  Pt1  1  0.50691000  0.76247000  0.03257000  1.0 0.0628280575
Pt  Pt2  1  0.49309000  0.23753000  0.96743000  1.0 0.0628280575
C  C1  1  0.95500000  0.93950000  0.81240000  1.0 0.0888827342
C  C2  1  0.04500000  0.06050000  0.18760000  1.0 0.0888827342
C  C3  1  0.94480000  0.87710000  0.72920000  1.0 -0.1620154817
C  C4  1  0.05520000  0.12290000  0.27080000  1.0 -0.1620154817
C  C5  1  0.96310000  0.77430000  0.71640000  1.0 0.1597157429
C  C6  1  0.03690000  0.22570000  0.28360000  1.0 0.1597157429
C  C7  1  0.98280000  0.73780000  0.78710000  1.0 -0.1714867716
C  C8  1  0.01720000  0.26220000  0.21290000  1.0 -0.1714867716
C  C9  1  0.98860000  0.80430000  0.86850000  1.0 0.0683923449
C  C10  1  0.01140000  0.19570000  0.13150000  1.0 0.0683923449
C  C11  1  0.96660000  0.71010000  0.63070000  1.0 -0.0724598159
C  C12  1  0.03340000  0.28990000  0.36930000  1.0 -0.0724598159
C  C13  1  0.97610000  0.66390000  0.55700000  1.0 -0.0457252328
C  C14  1  0.02390000  0.33610000  0.44300000  1.0 -0.0457252328
C  C15  1  0.70470000  0.86100000  0.03340000  1.0 0.0386439088
C  C16  1  0.29530000  0.13900000  0.96660000  1.0 0.0386439088
C  C17  1  0.30610000  0.66320000  0.02660000  1.0 0.0253253404
C  C18  1  0.69390000  0.33680000  0.97340000  1.0 0.024758841
C  C19  1  0.69590000  0.65730000  0.01830000  1.0 0.0253253404
C  C20  1  0.30410000  0.34270000  0.98170000  1.0 0.0253253404
C  C21  1  0.31580000  0.86520000  0.03760000  1.0 0.0386439088
C  C22  1  0.68420000  0.13480000  0.96240000  1.0 0.0386439088
C  C23  1  0.84930000  0.51540000  0.16230000  1.0 0.0784711997
C  C24  1  0.15070000  0.48460000  0.83770000  1.0 0.0784711997
C  C25  1  0.84360000  0.53420000  0.24980000  1.0 -0.1810689967
C  C26  1  0.15640000  0.46580000  0.75020000  1.0 -0.1810689967
C  C27  1  0.00790000  0.56230000  0.30440000  1.0 0.1597157429
C  C28  1  0.99210000  0.43770000  0.69560000  1.0 0.1597157429
C  C29  1  0.17270000  0.56680000  0.26860000  1.0 -0.1810689967
C  C30  1  0.82730000  0.43320000  0.73140000  1.0 -0.1810689967
C  C31  1  0.16700000  0.54460000  0.17960000  1.0 0.0784711997
C  C32  1  0.83300000  0.45540000  0.82040000  1.0 0.0784711997
C  C33  1  0.00360000  0.58990000  0.39620000  1.0 -0.0628600725
C  C34  1  0.99640000  0.41010000  0.60380000  1.0 -0.0628600725
C  C35  1  0.98890000  0.62080000  0.47140000  1.0 -0.0443577085
C  C36  1  0.01110000  0.37920000  0.52860000  1.0 -0.0457252328
N  N1  1  0.97770000  0.90570000  0.88160000  1.0 -0.1402558227
N  N2  1  0.02230000  0.09430000  0.11840000  1.0 -0.1402558227
N  N3  1  0.81870000  0.91630000  0.02810000  1.0 -0.3035072301
N  N4  1  0.18130000  0.08370000  0.97190000  1.0 -0.3035072301
N  N5  1  0.18840000  0.60480000  0.01990000  1.0 -0.310296378
N  N6  1  0.81160000  0.39520000  0.98010000  1.0 -0.310296378
N  N7  1  0.80660000  0.59700000  0.00810000  1.0 -0.310296378
N  N8  1  0.19340000  0.40300000  0.99190000  1.0 -0.310296378
N  N9  1  0.00750000  0.51960000  0.12590000  1.0 -0.1402558227
N  N10  1  0.99250000  0.48040000  0.87410000  1.0 -0.1402558227
N  N11  1  0.20100000  0.92060000  0.03170000  1.0 -0.3035072301
N  N12  1  0.79900000  0.07940000  0.96830000  1.0 -0.3035072301
