# DDEC6 charges by PACMAN v1.1 (https://github.com/mtap-research/PACMAN-charge/)
data_XIWKUJ_ASR_pacman
_symmetry_space_group_name_H-M   'P 1'
_cell_length_a   9.42913000
_cell_length_b   9.42913000
_cell_length_c   9.42913000
_cell_angle_alpha   93.40330000
_cell_angle_beta   93.40330000
_cell_angle_gamma   93.40330000
_symmetry_Int_Tables_number   1
_chemical_formula_structural   Zn7(PO4)6
_chemical_formula_sum   'Zn7 P6 O24'
_cell_volume   833.71012821
_cell_formula_units_Z   1
loop_
 _symmetry_equiv_pos_site_id
 _symmetry_equiv_pos_as_xyz
  1  'x, y, z'
loop_
 _atom_site_type_symbol
 _atom_site_label
 _atom_site_symmetry_multiplicity
 _atom_site_fract_x
 _atom_site_fract_y
 _atom_site_fract_z
 _atom_site_occupancy
 _atom_site_charge
Zn  Zn1  1  0.00000000  0.00000000  0.00000000  1.0 1.1956539315
Zn  Zn2  1  0.06570000  0.33460000  0.87930000  1.0 1.1488868755
Zn  Zn3  1  0.33460000  0.87930000  0.06570000  1.0 1.1488868755
Zn  Zn4  1  0.87930000  0.06570000  0.33460000  1.0 1.1488868755
Zn  Zn5  1  0.93430000  0.66540000  0.12070000  1.0 1.1488868755
Zn  Zn6  1  0.66540000  0.12070000  0.93430000  1.0 1.1488868755
Zn  Zn7  1  0.12070000  0.93430000  0.66540000  1.0 1.1488868755
P  P1  1  0.31080000  0.12530000  0.87980000  1.0 1.4858486019
P  P2  1  0.12530000  0.87980000  0.31080000  1.0 1.4858486019
P  P3  1  0.87980000  0.31080000  0.12530000  1.0 1.4819918635
P  P4  1  0.68920000  0.87470000  0.12020000  1.0 1.4819918635
P  P5  1  0.87470000  0.12020000  0.68920000  1.0 1.4819918635
P  P6  1  0.12020000  0.68920000  0.87470000  1.0 1.4858486019
O  O1  1  0.25770000  0.27440000  0.88490000  1.0 -0.6658172248
O  O2  1  0.27440000  0.88490000  0.25770000  1.0 -0.6658172248
O  O3  1  0.88490000  0.25770000  0.27440000  1.0 -0.6658172248
O  O4  1  0.74230000  0.72560000  0.11510000  1.0 -0.6658172248
O  O5  1  0.72560000  0.11510000  0.74230000  1.0 -0.6658172248
O  O6  1  0.11510000  0.74230000  0.72560000  1.0 -0.6658172248
O  O7  1  0.29060000  0.05600000  0.72900000  1.0 -0.689972027
O  O8  1  0.05600000  0.72900000  0.29060000  1.0 -0.689972027
O  O9  1  0.72900000  0.29060000  0.05600000  1.0 -0.689972027
O  O10  1  0.70940000  0.94400000  0.27100000  1.0 -0.689972027
O  O11  1  0.94400000  0.27100000  0.70940000  1.0 -0.689972027
O  O12  1  0.27100000  0.70940000  0.94400000  1.0 -0.689972027
O  O13  1  0.46430000  0.13350000  0.93230000  1.0 -0.7027620711
O  O14  1  0.13350000  0.93230000  0.46430000  1.0 -0.7027620711
O  O15  1  0.93230000  0.46430000  0.13350000  1.0 -0.7027620711
O  O16  1  0.53570000  0.86650000  0.06770000  1.0 -0.7027620711
O  O17  1  0.86650000  0.06770000  0.53570000  1.0 -0.7027620711
O  O18  1  0.06770000  0.53570000  0.86650000  1.0 -0.7027620711
O  O19  1  0.22520000  0.03190000  0.97870000  1.0 -0.7735314407
O  O20  1  0.03190000  0.97870000  0.22520000  1.0 -0.7735314407
O  O21  1  0.97870000  0.22520000  0.03190000  1.0 -0.7735314407
O  O22  1  0.77480000  0.96810000  0.02130000  1.0 -0.7735314407
O  O23  1  0.96810000  0.02130000  0.77480000  1.0 -0.7735314407
O  O24  1  0.02130000  0.77480000  0.96810000  1.0 -0.7735314407
