# DDEC6 charges by PACMAN v1.1 (https://github.com/mtap-research/PACMAN-charge/)
data_XIWLAQ_ASR_pacman
_symmetry_space_group_name_H-M   'P 1'
_cell_length_a   5.26970000
_cell_length_b   12.14000000
_cell_length_c   13.91610000
_cell_angle_alpha   115.43900000
_cell_angle_beta   98.39200000
_cell_angle_gamma   91.15700000
_symmetry_Int_Tables_number   1
_chemical_formula_structural   Zn4(PO4)3
_chemical_formula_sum   'Zn8 P6 O24'
_cell_volume   791.91451386
_cell_formula_units_Z   2
loop_
 _symmetry_equiv_pos_site_id
 _symmetry_equiv_pos_as_xyz
  1  'x, y, z'
loop_
 _atom_site_type_symbol
 _atom_site_label
 _atom_site_symmetry_multiplicity
 _atom_site_fract_x
 _atom_site_fract_y
 _atom_site_fract_z
 _atom_site_occupancy
 _atom_site_charge
Zn  Zn1  1  0.50970000  0.39760000  0.16730000  1.0 1.0268408327
Zn  Zn2  1  0.49030000  0.60240000  0.83270000  1.0 1.0268408327
Zn  Zn3  1  0.04760000  0.30350000  0.95460000  1.0 1.1193132369
Zn  Zn4  1  0.95240000  0.69650000  0.04540000  1.0 1.1193132369
Zn  Zn5  1  0.44130000  0.11410000  0.15350000  1.0 1.0717243819
Zn  Zn6  1  0.55870000  0.88590000  0.84650000  1.0 1.0717243819
Zn  Zn7  1  0.22690000  0.49180000  0.38190000  1.0 1.1193132369
Zn  Zn8  1  0.77310000  0.50820000  0.61810000  1.0 1.1193132369
P  P1  1  0.03190000  0.53710000  0.17740000  1.0 1.5423640875
P  P2  1  0.96810000  0.46290000  0.82260000  1.0 1.5423640875
P  P3  1  0.69960000  0.33700000  0.36220000  1.0 1.5027404098
P  P4  1  0.30040000  0.66300000  0.63780000  1.0 1.5027404098
P  P5  1  0.53650000  0.16860000  0.95970000  1.0 1.5309183268
P  P6  1  0.46350000  0.83140000  0.04030000  1.0 1.5309183268
O  O1  1  0.15020000  0.41510000  0.11100000  1.0 -0.7793583752
O  O2  1  0.84980000  0.58490000  0.88900000  1.0 -0.7793583752
O  O3  1  0.10460000  0.63460000  0.14270000  1.0 -0.7115603121
O  O4  1  0.89540000  0.36540000  0.85730000  1.0 -0.7115603121
O  O5  1  0.74110000  0.51270000  0.15910000  1.0 -0.747549075
O  O6  1  0.25890000  0.48730000  0.84090000  1.0 -0.747549075
O  O7  1  0.15910000  0.58240000  0.29550000  1.0 -0.7380828194
O  O8  1  0.84090000  0.41760000  0.70450000  1.0 -0.7380828194
O  O9  1  0.52100000  0.40780000  0.31270000  1.0 -0.7793583752
O  O10  1  0.47900000  0.59220000  0.68730000  1.0 -0.7793583752
O  O11  1  0.62130000  0.20070000  0.30060000  1.0 -0.6996157797
O  O12  1  0.37870000  0.79930000  0.69940000  1.0 -0.6996157797
O  O13  1  0.66250000  0.38010000  0.47840000  1.0 -0.7380828194
O  O14  1  0.33750000  0.61990000  0.52160000  1.0 -0.7380828194
O  O15  1  0.97640000  0.36310000  0.35280000  1.0 -0.7590518029
O  O16  1  0.02360000  0.63690000  0.64720000  1.0 -0.7590518029
O  O17  1  0.53660000  0.22070000  0.08420000  1.0 -0.7590518029
O  O18  1  0.46340000  0.77930000  0.91580000  1.0 -0.7590518029
O  O19  1  0.40930000  0.03810000  0.90780000  1.0 -0.747549075
O  O20  1  0.59070000  0.96190000  0.09220000  1.0 -0.747549075
O  O21  1  0.81460000  0.17010000  0.94110000  1.0 -0.7380828194
O  O22  1  0.18540000  0.82990000  0.05890000  1.0 -0.7380828194
O  O23  1  0.37980000  0.24920000  0.91920000  1.0 -0.7158714564
O  O24  1  0.62020000  0.75080000  0.08080000  1.0 -0.7158714564
