# DDEC6 charges by PACMAN v1.1 (https://github.com/mtap-research/PACMAN-charge/)
data_XIWPIG_ASR_pacman
_symmetry_space_group_name_H-M   'P 1'
_cell_length_a   22.91920000
_cell_length_b   22.91920000
_cell_length_c   22.91920000
_cell_angle_alpha   109.47100000
_cell_angle_beta   109.47100000
_cell_angle_gamma   109.47100000
_symmetry_Int_Tables_number   1
_chemical_formula_structural   CaTiH12C36O9F8
_chemical_formula_sum   'Ca6 Ti6 H72 C216 O54 F48'
_cell_volume   9267.87185128
_cell_formula_units_Z   6
loop_
 _symmetry_equiv_pos_site_id
 _symmetry_equiv_pos_as_xyz
  1  'x, y, z'
loop_
 _atom_site_type_symbol
 _atom_site_label
 _atom_site_symmetry_multiplicity
 _atom_site_fract_x
 _atom_site_fract_y
 _atom_site_fract_z
 _atom_site_occupancy
 _atom_site_charge
Ca  Ca1  1  0.57340000  0.07340000  0.50000000  1.0 1.4779416004
Ca  Ca2  1  0.42660000  0.92660000  0.50000000  1.0 1.4779416004
Ca  Ca3  1  0.92660000  0.50000000  0.42660000  1.0 1.4779416004
Ca  Ca4  1  0.07340000  0.50000000  0.57340000  1.0 1.4779416004
Ca  Ca5  1  0.50000000  0.42660000  0.92660000  1.0 1.4779416004
Ca  Ca6  1  0.50000000  0.57340000  0.07340000  1.0 1.4779416004
Ti  Ti1  1  0.50000000  0.11740000  0.61740000  1.0 1.8999055107
Ti  Ti2  1  0.50000000  0.88260000  0.38260000  1.0 1.8999055107
Ti  Ti3  1  0.11740000  0.61740000  0.50000000  1.0 1.8999055107
Ti  Ti4  1  0.88260000  0.38260000  0.50000000  1.0 1.8999055107
Ti  Ti5  1  0.38260000  0.50000000  0.88260000  1.0 1.8999055107
Ti  Ti6  1  0.61740000  0.50000000  0.11740000  1.0 1.8999055107
H  H1  1  0.37963000  0.38450000  0.49081000  1.0 0.1204973941
H  H2  1  0.89369000  0.88882000  0.50919000  1.0 0.1204973941
H  H3  1  0.10631000  0.61550000  0.99513000  1.0 0.1204973941
H  H4  1  0.11118000  0.00487000  0.62037000  1.0 0.1204973941
H  H5  1  0.88882000  0.50919000  0.89369000  1.0 0.1204973941
H  H6  1  0.99513000  0.10631000  0.61550000  1.0 0.1204973941
H  H7  1  0.00487000  0.62037000  0.11118000  1.0 0.1204973941
H  H8  1  0.50919000  0.89369000  0.88882000  1.0 0.1204973941
H  H9  1  0.49081000  0.37963000  0.38450000  1.0 0.1204973941
H  H10  1  0.61550000  0.99513000  0.10631000  1.0 0.1204973941
H  H11  1  0.38450000  0.49081000  0.37963000  1.0 0.1204973941
H  H12  1  0.62037000  0.11118000  0.00487000  1.0 0.1204973941
H  H13  1  0.62037000  0.61550000  0.50919000  1.0 0.1204973941
H  H14  1  0.10631000  0.11118000  0.49081000  1.0 0.1204973941
H  H15  1  0.89369000  0.38450000  0.00487000  1.0 0.1204973941
H  H16  1  0.88882000  0.99513000  0.37963000  1.0 0.1204973941
H  H17  1  0.11118000  0.49081000  0.10631000  1.0 0.1204973941
H  H18  1  0.00487000  0.89369000  0.38450000  1.0 0.1204973941
H  H19  1  0.99513000  0.37963000  0.88882000  1.0 0.1204973941
H  H20  1  0.49081000  0.10631000  0.11118000  1.0 0.1204973941
H  H21  1  0.50919000  0.62037000  0.61550000  1.0 0.1204973941
H  H22  1  0.38450000  0.00487000  0.89369000  1.0 0.1204973941
H  H23  1  0.61550000  0.50919000  0.62037000  1.0 0.1204973941
H  H24  1  0.37963000  0.88882000  0.99513000  1.0 0.1204973941
H  H25  1  0.49433000  0.29898000  0.60155000  1.0 0.1494319654
H  H26  1  0.69743000  0.89278000  0.39845000  1.0 0.1494319654
H  H27  1  0.30257000  0.70102000  0.19535000  1.0 0.1494319654
H  H28  1  0.10722000  0.80465000  0.50567000  1.0 0.1494319654
H  H29  1  0.89278000  0.39845000  0.69743000  1.0 0.1494319654
H  H30  1  0.19535000  0.30257000  0.70102000  1.0 0.1494319654
H  H31  1  0.80465000  0.50567000  0.10722000  1.0 0.1494319654
H  H32  1  0.39845000  0.69743000  0.89278000  1.0 0.1494319654
H  H33  1  0.60155000  0.49433000  0.29898000  1.0 0.1494319654
H  H34  1  0.70102000  0.19535000  0.30257000  1.0 0.1494319654
H  H35  1  0.29898000  0.60155000  0.49433000  1.0 0.1494319654
H  H36  1  0.50567000  0.10722000  0.80465000  1.0 0.1494319654
H  H37  1  0.50567000  0.70102000  0.39845000  1.0 0.1494319654
H  H38  1  0.30257000  0.10722000  0.60155000  1.0 0.1494319654
H  H39  1  0.69743000  0.29898000  0.80465000  1.0 0.1494319654
H  H40  1  0.89278000  0.19535000  0.49433000  1.0 0.1494319654
H  H41  1  0.10722000  0.60155000  0.30257000  1.0 0.1494319654
H  H42  1  0.80465000  0.69743000  0.29898000  1.0 0.1494319654
H  H43  1  0.19535000  0.49433000  0.89278000  1.0 0.1494319654
H  H44  1  0.60155000  0.30257000  0.10722000  1.0 0.1494319654
H  H45  1  0.39845000  0.50567000  0.70102000  1.0 0.1494319654
H  H46  1  0.29898000  0.80465000  0.69743000  1.0 0.1494319654
H  H47  1  0.70102000  0.39845000  0.50567000  1.0 0.1494319654
H  H48  1  0.49433000  0.89278000  0.19535000  1.0 0.1494319654
H  H49  1  0.47880000  0.19149000  0.41461000  1.0 0.1494319654
H  H50  1  0.77688000  0.06419000  0.58539000  1.0 0.1494319654
H  H51  1  0.22312000  0.80851000  0.28731000  1.0 0.1494319654
H  H52  1  0.93581000  0.71269000  0.52120000  1.0 0.1494319654
H  H53  1  0.06419000  0.58539000  0.77688000  1.0 0.1494319654
H  H54  1  0.28731000  0.22312000  0.80851000  1.0 0.1494319654
H  H55  1  0.71269000  0.52120000  0.93581000  1.0 0.1494319654
H  H56  1  0.58539000  0.77688000  0.06419000  1.0 0.1494319654
H  H57  1  0.41461000  0.47880000  0.19149000  1.0 0.1494319654
H  H58  1  0.80851000  0.28731000  0.22312000  1.0 0.1494319654
H  H59  1  0.19149000  0.41461000  0.47880000  1.0 0.1494319654
H  H60  1  0.52120000  0.93581000  0.71269000  1.0 0.1494319654
H  H61  1  0.52120000  0.80851000  0.58539000  1.0 0.1494319654
H  H62  1  0.22312000  0.93581000  0.41461000  1.0 0.1494319654
H  H63  1  0.77688000  0.19149000  0.71269000  1.0 0.1494319654
H  H64  1  0.06419000  0.28731000  0.47880000  1.0 0.1494319654
H  H65  1  0.93581000  0.41461000  0.22312000  1.0 0.1494319654
H  H66  1  0.71269000  0.77688000  0.19149000  1.0 0.1494319654
H  H67  1  0.28731000  0.47880000  0.06419000  1.0 0.1494319654
H  H68  1  0.41461000  0.22312000  0.93581000  1.0 0.1494319654
H  H69  1  0.58539000  0.52120000  0.80851000  1.0 0.1494319654
H  H70  1  0.19149000  0.71269000  0.77688000  1.0 0.1494319654
H  H71  1  0.80851000  0.58539000  0.52120000  1.0 0.1494319654
H  H72  1  0.47880000  0.06419000  0.28731000  1.0 0.1494319654
C  C1  1  0.50600000  0.19000000  0.53420000  1.0 0.6090779482
C  C2  1  0.65580000  0.97180000  0.46580000  1.0 0.6090779482
C  C3  1  0.34420000  0.81000000  0.31600000  1.0 0.6090779482
C  C4  1  0.02820000  0.68400000  0.49400000  1.0 0.6090779482
C  C5  1  0.97180000  0.46580000  0.65580000  1.0 0.6090779482
C  C6  1  0.31600000  0.34420000  0.81000000  1.0 0.6090779482
C  C7  1  0.68400000  0.49400000  0.02820000  1.0 0.6090779482
C  C8  1  0.46580000  0.65580000  0.97180000  1.0 0.6090779482
C  C9  1  0.53420000  0.50600000  0.19000000  1.0 0.6090779482
C  C10  1  0.81000000  0.31600000  0.34420000  1.0 0.6090779482
C  C11  1  0.19000000  0.53420000  0.50600000  1.0 0.6090779482
C  C12  1  0.49400000  0.02820000  0.68400000  1.0 0.6090779482
C  C13  1  0.49400000  0.81000000  0.46580000  1.0 0.6090779482
C  C14  1  0.34420000  0.02820000  0.53420000  1.0 0.6090779482
C  C15  1  0.65580000  0.19000000  0.68400000  1.0 0.6090779482
C  C16  1  0.97180000  0.31600000  0.50600000  1.0 0.6090779482
C  C17  1  0.02820000  0.53420000  0.34420000  1.0 0.6090779482
C  C18  1  0.68400000  0.65580000  0.19000000  1.0 0.6090779482
C  C19  1  0.31600000  0.50600000  0.97180000  1.0 0.6090779482
C  C20  1  0.53420000  0.34420000  0.02820000  1.0 0.6090779482
C  C21  1  0.46580000  0.49400000  0.81000000  1.0 0.6090779482
C  C22  1  0.19000000  0.68400000  0.65580000  1.0 0.6090779482
C  C23  1  0.81000000  0.46580000  0.49400000  1.0 0.6090779482
C  C24  1  0.50600000  0.97180000  0.31600000  1.0 0.6090779482
C  C25  1  0.48910000  0.23800000  0.51150000  1.0 0.0012036715
C  C26  1  0.72650000  0.97760000  0.48850000  1.0 0.0012036715
C  C27  1  0.27350000  0.76200000  0.25110000  1.0 0.0012036715
C  C28  1  0.02240000  0.74890000  0.51090000  1.0 0.0012036715
C  C29  1  0.97760000  0.48850000  0.72650000  1.0 0.0012036715
C  C30  1  0.25110000  0.27350000  0.76200000  1.0 0.0012036715
C  C31  1  0.74890000  0.51090000  0.02240000  1.0 0.0012036715
C  C32  1  0.48850000  0.72650000  0.97760000  1.0 0.0012036715
C  C33  1  0.51150000  0.48910000  0.23800000  1.0 0.0012036715
C  C34  1  0.76200000  0.25110000  0.27350000  1.0 0.0012036715
C  C35  1  0.23800000  0.51150000  0.48910000  1.0 0.0012036715
C  C36  1  0.51090000  0.02240000  0.74890000  1.0 0.0012036715
C  C37  1  0.51090000  0.76200000  0.48850000  1.0 0.0012036715
C  C38  1  0.27350000  0.02240000  0.51150000  1.0 0.0012036715
C  C39  1  0.72650000  0.23800000  0.74890000  1.0 0.0012036715
C  C40  1  0.97760000  0.25110000  0.48910000  1.0 0.0012036715
C  C41  1  0.02240000  0.51150000  0.27350000  1.0 0.0012036715
C  C42  1  0.74890000  0.72650000  0.23800000  1.0 0.0012036715
C  C43  1  0.25110000  0.48910000  0.97760000  1.0 0.0012036715
C  C44  1  0.51150000  0.27350000  0.02240000  1.0 0.0012036715
C  C45  1  0.48850000  0.51090000  0.76200000  1.0 0.0012036715
C  C46  1  0.23800000  0.74890000  0.72650000  1.0 0.0012036715
C  C47  1  0.76200000  0.48850000  0.51090000  1.0 0.0012036715
C  C48  1  0.48910000  0.97760000  0.25110000  1.0 0.0012036715
C  C49  1  0.44060000  0.37570000  0.44630000  1.0 0.132211187
C  C50  1  0.92940000  0.99430000  0.55370000  1.0 0.132211187
C  C51  1  0.07060000  0.62430000  0.06490000  1.0 0.132211187
C  C52  1  0.00570000  0.93510000  0.55940000  1.0 0.132211187
C  C53  1  0.99430000  0.55370000  0.92940000  1.0 0.132211187
C  C54  1  0.06490000  0.07060000  0.62430000  1.0 0.132211187
C  C55  1  0.93510000  0.55940000  0.00570000  1.0 0.132211187
C  C56  1  0.55370000  0.92940000  0.99430000  1.0 0.132211187
C  C57  1  0.44630000  0.44060000  0.37570000  1.0 0.132211187
C  C58  1  0.62430000  0.06490000  0.07060000  1.0 0.132211187
C  C59  1  0.37570000  0.44630000  0.44060000  1.0 0.132211187
C  C60  1  0.55940000  0.00570000  0.93510000  1.0 0.132211187
C  C61  1  0.55940000  0.62430000  0.55370000  1.0 0.132211187
C  C62  1  0.07060000  0.00570000  0.44630000  1.0 0.132211187
C  C63  1  0.92940000  0.37570000  0.93510000  1.0 0.132211187
C  C64  1  0.99430000  0.06490000  0.44060000  1.0 0.132211187
C  C65  1  0.00570000  0.44630000  0.07060000  1.0 0.132211187
C  C66  1  0.93510000  0.92940000  0.37570000  1.0 0.132211187
C  C67  1  0.06490000  0.44060000  0.99430000  1.0 0.132211187
C  C68  1  0.44630000  0.07060000  0.00570000  1.0 0.132211187
C  C69  1  0.55370000  0.55940000  0.62430000  1.0 0.132211187
C  C70  1  0.37570000  0.93510000  0.92940000  1.0 0.132211187
C  C71  1  0.62430000  0.55370000  0.55940000  1.0 0.132211187
C  C72  1  0.44060000  0.99430000  0.06490000  1.0 0.132211187
C  C73  1  0.39820000  0.39920000  0.46500000  1.0 -0.213204566
C  C74  1  0.93420000  0.93320000  0.53500000  1.0 -0.213204566
C  C75  1  0.06580000  0.60080000  0.99900000  1.0 -0.213204566
C  C76  1  0.06680000  0.00100000  0.60180000  1.0 -0.213204566
C  C77  1  0.93320000  0.53500000  0.93420000  1.0 -0.213204566
C  C78  1  0.99900000  0.06580000  0.60080000  1.0 -0.213204566
C  C79  1  0.00100000  0.60180000  0.06680000  1.0 -0.213204566
C  C80  1  0.53500000  0.93420000  0.93320000  1.0 -0.213204566
C  C81  1  0.46500000  0.39820000  0.39920000  1.0 -0.213204566
C  C82  1  0.60080000  0.99900000  0.06580000  1.0 -0.213204566
C  C83  1  0.39920000  0.46500000  0.39820000  1.0 -0.213204566
C  C84  1  0.60180000  0.06680000  0.00100000  1.0 -0.213204566
C  C85  1  0.60180000  0.60080000  0.53500000  1.0 -0.213204566
C  C86  1  0.06580000  0.06680000  0.46500000  1.0 -0.213204566
C  C87  1  0.93420000  0.39920000  0.00100000  1.0 -0.213204566
C  C88  1  0.93320000  0.99900000  0.39820000  1.0 -0.213204566
C  C89  1  0.06680000  0.46500000  0.06580000  1.0 -0.213204566
C  C90  1  0.00100000  0.93420000  0.39920000  1.0 -0.213204566
C  C91  1  0.99900000  0.39820000  0.93320000  1.0 -0.213204566
C  C92  1  0.46500000  0.06580000  0.06680000  1.0 -0.213204566
C  C93  1  0.53500000  0.60180000  0.60080000  1.0 -0.213204566
C  C94  1  0.39920000  0.00100000  0.93420000  1.0 -0.213204566
C  C95  1  0.60080000  0.53500000  0.60180000  1.0 -0.213204566
C  C96  1  0.39820000  0.93320000  0.99900000  1.0 -0.213204566
C  C97  1  0.47000000  0.33720000  0.53540000  1.0 0.2635971585
C  C98  1  0.80180000  0.93460000  0.46460000  1.0 0.2635971585
C  C99  1  0.19820000  0.66280000  0.13280000  1.0 0.2635971585
C  C100  1  0.06540000  0.86720000  0.53000000  1.0 0.2635971585
C  C101  1  0.93460000  0.46460000  0.80180000  1.0 0.2635971585
C  C102  1  0.13280000  0.19820000  0.66280000  1.0 0.2635971585
C  C103  1  0.86720000  0.53000000  0.06540000  1.0 0.2635971585
C  C104  1  0.46460000  0.80180000  0.93460000  1.0 0.2635971585
C  C105  1  0.53540000  0.47000000  0.33720000  1.0 0.2635971585
C  C106  1  0.66280000  0.13280000  0.19820000  1.0 0.2635971585
C  C107  1  0.33720000  0.53540000  0.47000000  1.0 0.2635971585
C  C108  1  0.53000000  0.06540000  0.86720000  1.0 0.2635971585
C  C109  1  0.53000000  0.66280000  0.46460000  1.0 0.2635971585
C  C110  1  0.19820000  0.06540000  0.53540000  1.0 0.2635971585
C  C111  1  0.80180000  0.33720000  0.86720000  1.0 0.2635971585
C  C112  1  0.93460000  0.13280000  0.47000000  1.0 0.2635971585
C  C113  1  0.06540000  0.53540000  0.19820000  1.0 0.2635971585
C  C114  1  0.86720000  0.80180000  0.33720000  1.0 0.2635971585
C  C115  1  0.13280000  0.47000000  0.93460000  1.0 0.2635971585
C  C116  1  0.53540000  0.19820000  0.06540000  1.0 0.2635971585
C  C117  1  0.46460000  0.53000000  0.66280000  1.0 0.2635971585
C  C118  1  0.33720000  0.86720000  0.80180000  1.0 0.2635971585
C  C119  1  0.66280000  0.46460000  0.53000000  1.0 0.2635971585
C  C120  1  0.47000000  0.93460000  0.13280000  1.0 0.2635971585
C  C121  1  0.45740000  0.32800000  0.46940000  1.0 -0.1678169428
C  C122  1  0.85860000  0.98800000  0.53060000  1.0 -0.1678169428
C  C123  1  0.14140000  0.67200000  0.12940000  1.0 -0.1678169428
C  C124  1  0.01200000  0.87060000  0.54260000  1.0 -0.1678169428
C  C125  1  0.98800000  0.53060000  0.85860000  1.0 -0.1678169428
C  C126  1  0.12940000  0.14140000  0.67200000  1.0 -0.1678169428
C  C127  1  0.87060000  0.54260000  0.01200000  1.0 -0.1678169428
C  C128  1  0.53060000  0.85860000  0.98800000  1.0 -0.1678169428
C  C129  1  0.46940000  0.45740000  0.32800000  1.0 -0.1678169428
C  C130  1  0.67200000  0.12940000  0.14140000  1.0 -0.1678169428
C  C131  1  0.32800000  0.46940000  0.45740000  1.0 -0.1678169428
C  C132  1  0.54260000  0.01200000  0.87060000  1.0 -0.1678169428
C  C133  1  0.54260000  0.67200000  0.53060000  1.0 -0.1678169428
C  C134  1  0.14140000  0.01200000  0.46940000  1.0 -0.1678169428
C  C135  1  0.85860000  0.32800000  0.87060000  1.0 -0.1678169428
C  C136  1  0.98800000  0.12940000  0.45740000  1.0 -0.1678169428
C  C137  1  0.01200000  0.46940000  0.14140000  1.0 -0.1678169428
C  C138  1  0.87060000  0.85860000  0.32800000  1.0 -0.1678169428
C  C139  1  0.12940000  0.45740000  0.98800000  1.0 -0.1678169428
C  C140  1  0.46940000  0.14140000  0.01200000  1.0 -0.1678169428
C  C141  1  0.53060000  0.54260000  0.67200000  1.0 -0.1678169428
C  C142  1  0.32800000  0.87060000  0.85860000  1.0 -0.1678169428
C  C143  1  0.67200000  0.53060000  0.54260000  1.0 -0.1678169428
C  C144  1  0.45740000  0.98800000  0.12940000  1.0 -0.1678169428
C  C145  1  0.48580000  0.29240000  0.55660000  1.0 -0.2217322609
C  C146  1  0.73580000  0.92920000  0.44340000  1.0 -0.2217322609
C  C147  1  0.26420000  0.70760000  0.19340000  1.0 -0.2217322609
C  C148  1  0.07080000  0.80660000  0.51420000  1.0 -0.2217322609
C  C149  1  0.92920000  0.44340000  0.73580000  1.0 -0.2217322609
C  C150  1  0.19340000  0.26420000  0.70760000  1.0 -0.2217322609
C  C151  1  0.80660000  0.51420000  0.07080000  1.0 -0.2217322609
C  C152  1  0.44340000  0.73580000  0.92920000  1.0 -0.2217322609
C  C153  1  0.55660000  0.48580000  0.29240000  1.0 -0.2217322609
C  C154  1  0.70760000  0.19340000  0.26420000  1.0 -0.2217322609
C  C155  1  0.29240000  0.55660000  0.48580000  1.0 -0.2217322609
C  C156  1  0.51420000  0.07080000  0.80660000  1.0 -0.2217322609
C  C157  1  0.51420000  0.70760000  0.44340000  1.0 -0.2217322609
C  C158  1  0.26420000  0.07080000  0.55660000  1.0 -0.2217322609
C  C159  1  0.73580000  0.29240000  0.80660000  1.0 -0.2217322609
C  C160  1  0.92920000  0.19340000  0.48580000  1.0 -0.2217322609
C  C161  1  0.07080000  0.55660000  0.26420000  1.0 -0.2217322609
C  C162  1  0.80660000  0.73580000  0.29240000  1.0 -0.2217322609
C  C163  1  0.19340000  0.48580000  0.92920000  1.0 -0.2217322609
C  C164  1  0.55660000  0.26420000  0.07080000  1.0 -0.2217322609
C  C165  1  0.44340000  0.51420000  0.70760000  1.0 -0.2217322609
C  C166  1  0.29240000  0.80660000  0.73580000  1.0 -0.2217322609
C  C167  1  0.70760000  0.44340000  0.51420000  1.0 -0.2217322609
C  C168  1  0.48580000  0.92920000  0.19340000  1.0 -0.2217322609
C  C169  1  0.46080000  0.27300000  0.42380000  1.0 0.2681967148
C  C170  1  0.84920000  0.03700000  0.57620000  1.0 0.2681967148
C  C171  1  0.15080000  0.72700000  0.18780000  1.0 0.2681967148
C  C172  1  0.96300000  0.81220000  0.53920000  1.0 0.2681967148
C  C173  1  0.03700000  0.57620000  0.84920000  1.0 0.2681967148
C  C174  1  0.18780000  0.15080000  0.72700000  1.0 0.2681967148
C  C175  1  0.81220000  0.53920000  0.96300000  1.0 0.2681967148
C  C176  1  0.57620000  0.84920000  0.03700000  1.0 0.2681967148
C  C177  1  0.42380000  0.46080000  0.27300000  1.0 0.2681967148
C  C178  1  0.72700000  0.18780000  0.15080000  1.0 0.2681967148
C  C179  1  0.27300000  0.42380000  0.46080000  1.0 0.2681967148
C  C180  1  0.53920000  0.96300000  0.81220000  1.0 0.2681967148
C  C181  1  0.53920000  0.72700000  0.57620000  1.0 0.2681967148
C  C182  1  0.15080000  0.96300000  0.42380000  1.0 0.2681967148
C  C183  1  0.84920000  0.27300000  0.81220000  1.0 0.2681967148
C  C184  1  0.03700000  0.18780000  0.46080000  1.0 0.2681967148
C  C185  1  0.96300000  0.42380000  0.15080000  1.0 0.2681967148
C  C186  1  0.81220000  0.84920000  0.27300000  1.0 0.2681967148
C  C187  1  0.18780000  0.46080000  0.03700000  1.0 0.2681967148
C  C188  1  0.42380000  0.15080000  0.96300000  1.0 0.2681967148
C  C189  1  0.57620000  0.53920000  0.72700000  1.0 0.2681967148
C  C190  1  0.27300000  0.81220000  0.84920000  1.0 0.2681967148
C  C191  1  0.72700000  0.57620000  0.53920000  1.0 0.2681967148
C  C192  1  0.46080000  0.03700000  0.18780000  1.0 0.2681967148
C  C193  1  0.47660000  0.22840000  0.44520000  1.0 -0.2217322609
C  C194  1  0.78320000  0.03140000  0.55480000  1.0 -0.2217322609
C  C195  1  0.21680000  0.77160000  0.24820000  1.0 -0.2217322609
C  C196  1  0.96860000  0.75180000  0.52340000  1.0 -0.2217322609
C  C197  1  0.03140000  0.55480000  0.78320000  1.0 -0.2217322609
C  C198  1  0.24820000  0.21680000  0.77160000  1.0 -0.2217322609
C  C199  1  0.75180000  0.52340000  0.96860000  1.0 -0.2217322609
C  C200  1  0.55480000  0.78320000  0.03140000  1.0 -0.2217322609
C  C201  1  0.44520000  0.47660000  0.22840000  1.0 -0.2217322609
C  C202  1  0.77160000  0.24820000  0.21680000  1.0 -0.2217322609
C  C203  1  0.22840000  0.44520000  0.47660000  1.0 -0.2217322609
C  C204  1  0.52340000  0.96860000  0.75180000  1.0 -0.2217322609
C  C205  1  0.52340000  0.77160000  0.55480000  1.0 -0.2217322609
C  C206  1  0.21680000  0.96860000  0.44520000  1.0 -0.2217322609
C  C207  1  0.78320000  0.22840000  0.75180000  1.0 -0.2217322609
C  C208  1  0.03140000  0.24820000  0.47660000  1.0 -0.2217322609
C  C209  1  0.96860000  0.44520000  0.21680000  1.0 -0.2217322609
C  C210  1  0.75180000  0.78320000  0.22840000  1.0 -0.2217322609
C  C211  1  0.24820000  0.47660000  0.03140000  1.0 -0.2217322609
C  C212  1  0.44520000  0.21680000  0.96860000  1.0 -0.2217322609
C  C213  1  0.55480000  0.52340000  0.77160000  1.0 -0.2217322609
C  C214  1  0.22840000  0.75180000  0.78320000  1.0 -0.2217322609
C  C215  1  0.77160000  0.55480000  0.52340000  1.0 -0.2217322609
C  C216  1  0.47660000  0.03140000  0.24820000  1.0 -0.2217322609
O  O1  1  0.50000000  0.05570000  0.55570000  1.0 -0.9553405514
O  O2  1  0.50000000  0.94430000  0.44430000  1.0 -0.9553405514
O  O3  1  0.05570000  0.55570000  0.50000000  1.0 -0.9553405514
O  O4  1  0.94430000  0.44430000  0.50000000  1.0 -0.9542576989
O  O5  1  0.44430000  0.50000000  0.94430000  1.0 -0.9553405514
O  O6  1  0.55570000  0.50000000  0.05570000  1.0 -0.9542576989
O  O7  1  0.50630000  0.19130000  0.58940000  1.0 -0.5963254393
O  O8  1  0.60190000  0.91690000  0.41060000  1.0 -0.5963254393
O  O9  1  0.39810000  0.80870000  0.31500000  1.0 -0.5963254393
O  O10  1  0.08310000  0.68500000  0.49370000  1.0 -0.5963254393
O  O11  1  0.91690000  0.41060000  0.60190000  1.0 -0.5963254393
O  O12  1  0.31500000  0.39810000  0.80870000  1.0 -0.5963254393
O  O13  1  0.68500000  0.49370000  0.08310000  1.0 -0.5963254393
O  O14  1  0.41060000  0.60190000  0.91690000  1.0 -0.5963254393
O  O15  1  0.58940000  0.50630000  0.19130000  1.0 -0.5963254393
O  O16  1  0.80870000  0.31500000  0.39810000  1.0 -0.5963254393
O  O17  1  0.19130000  0.58940000  0.50630000  1.0 -0.5963254393
O  O18  1  0.49370000  0.08310000  0.68500000  1.0 -0.5963254393
O  O19  1  0.49370000  0.80870000  0.41060000  1.0 -0.5963254393
O  O20  1  0.39810000  0.08310000  0.58940000  1.0 -0.5963254393
O  O21  1  0.60190000  0.19130000  0.68500000  1.0 -0.5963254393
O  O22  1  0.91690000  0.31500000  0.50630000  1.0 -0.5963254393
O  O23  1  0.08310000  0.58940000  0.39810000  1.0 -0.5963254393
O  O24  1  0.68500000  0.60190000  0.19130000  1.0 -0.5963254393
O  O25  1  0.31500000  0.50630000  0.91690000  1.0 -0.5963254393
O  O26  1  0.58940000  0.39810000  0.08310000  1.0 -0.5963254393
O  O27  1  0.41060000  0.49370000  0.80870000  1.0 -0.5963254393
O  O28  1  0.19130000  0.68500000  0.60190000  1.0 -0.5963254393
O  O29  1  0.80870000  0.41060000  0.49370000  1.0 -0.5963254393
O  O30  1  0.50630000  0.91690000  0.31500000  1.0 -0.5963254393
O  O31  1  0.52040000  0.14800000  0.49860000  1.0 -0.583864085
O  O32  1  0.64940000  0.02180000  0.50140000  1.0 -0.583864085
O  O33  1  0.35060000  0.85200000  0.37240000  1.0 -0.583864085
O  O34  1  0.97820000  0.62760000  0.47960000  1.0 -0.583864085
O  O35  1  0.02180000  0.50140000  0.64940000  1.0 -0.583864085
O  O36  1  0.37240000  0.35060000  0.85200000  1.0 -0.583864085
O  O37  1  0.62760000  0.47960000  0.97820000  1.0 -0.583864085
O  O38  1  0.50140000  0.64940000  0.02180000  1.0 -0.583864085
O  O39  1  0.49860000  0.52040000  0.14800000  1.0 -0.5853076101
O  O40  1  0.85200000  0.37240000  0.35060000  1.0 -0.5853076101
O  O41  1  0.14800000  0.49860000  0.52040000  1.0 -0.583864085
O  O42  1  0.47960000  0.97820000  0.62760000  1.0 -0.5853076101
O  O43  1  0.47960000  0.85200000  0.50140000  1.0 -0.583864085
O  O44  1  0.35060000  0.97820000  0.49860000  1.0 -0.5853076101
O  O45  1  0.64940000  0.14800000  0.62760000  1.0 -0.5853076101
O  O46  1  0.02180000  0.37240000  0.52040000  1.0 -0.583864085
O  O47  1  0.97820000  0.49860000  0.35060000  1.0 -0.583864085
O  O48  1  0.62760000  0.64940000  0.14800000  1.0 -0.5853076101
O  O49  1  0.37240000  0.52040000  0.02180000  1.0 -0.583864085
O  O50  1  0.49860000  0.35060000  0.97820000  1.0 -0.583864085
O  O51  1  0.50140000  0.47960000  0.85200000  1.0 -0.583864085
O  O52  1  0.14800000  0.62760000  0.64940000  1.0 -0.583864085
O  O53  1  0.85200000  0.50140000  0.47960000  1.0 -0.583864085
O  O54  1  0.52040000  0.02180000  0.37240000  1.0 -0.583864085
F  F1  1  0.46680000  0.38930000  0.57850000  1.0 -0.1405577929
F  F2  1  0.81080000  0.88830000  0.42150000  1.0 -0.1405577929
F  F3  1  0.18920000  0.61070000  0.07750000  1.0 -0.1405577929
F  F4  1  0.11170000  0.92250000  0.53320000  1.0 -0.1405577929
F  F5  1  0.88830000  0.42150000  0.81080000  1.0 -0.1405577929
F  F6  1  0.07750000  0.18920000  0.61070000  1.0 -0.1405577929
F  F7  1  0.92250000  0.53320000  0.11170000  1.0 -0.1405577929
F  F8  1  0.42150000  0.81080000  0.88830000  1.0 -0.1405577929
F  F9  1  0.57850000  0.46680000  0.38930000  1.0 -0.1405577929
F  F10  1  0.61070000  0.07750000  0.18920000  1.0 -0.1405577929
F  F11  1  0.38930000  0.57850000  0.46680000  1.0 -0.1405577929
F  F12  1  0.53320000  0.11170000  0.92250000  1.0 -0.1405577929
F  F13  1  0.53320000  0.61070000  0.42150000  1.0 -0.1405577929
F  F14  1  0.18920000  0.11170000  0.57850000  1.0 -0.1405577929
F  F15  1  0.81080000  0.38930000  0.92250000  1.0 -0.1405577929
F  F16  1  0.88830000  0.07750000  0.46680000  1.0 -0.1405577929
F  F17  1  0.11170000  0.57850000  0.18920000  1.0 -0.1405577929
F  F18  1  0.92250000  0.81080000  0.38930000  1.0 -0.1405577929
F  F19  1  0.07750000  0.46680000  0.88830000  1.0 -0.1405577929
F  F20  1  0.57850000  0.18920000  0.11170000  1.0 -0.1405577929
F  F21  1  0.42150000  0.53320000  0.61070000  1.0 -0.1405577929
F  F22  1  0.38930000  0.92250000  0.81080000  1.0 -0.1405577929
F  F23  1  0.61070000  0.42150000  0.53320000  1.0 -0.1405577929
F  F24  1  0.46680000  0.88830000  0.07750000  1.0 -0.1405577929
F  F25  1  0.44870000  0.26390000  0.36040000  1.0 -0.1537706537
F  F26  1  0.90350000  0.08830000  0.63960000  1.0 -0.1537706537
F  F27  1  0.09650000  0.73610000  0.18480000  1.0 -0.1537706537
F  F28  1  0.91170000  0.81520000  0.55130000  1.0 -0.1537706537
F  F29  1  0.08830000  0.63960000  0.90350000  1.0 -0.1537706537
F  F30  1  0.18480000  0.09650000  0.73610000  1.0 -0.1537706537
F  F31  1  0.81520000  0.55130000  0.91170000  1.0 -0.1537706537
F  F32  1  0.63960000  0.90350000  0.08830000  1.0 -0.1537706537
F  F33  1  0.36040000  0.44870000  0.26390000  1.0 -0.1537706537
F  F34  1  0.73610000  0.18480000  0.09650000  1.0 -0.1537706537
F  F35  1  0.26390000  0.36040000  0.44870000  1.0 -0.1537706537
F  F36  1  0.55130000  0.91170000  0.81520000  1.0 -0.1537706537
F  F37  1  0.55130000  0.73610000  0.63960000  1.0 -0.1537706537
F  F38  1  0.09650000  0.91170000  0.36040000  1.0 -0.1537706537
F  F39  1  0.90350000  0.26390000  0.81520000  1.0 -0.1537706537
F  F40  1  0.08830000  0.18480000  0.44870000  1.0 -0.1537706537
F  F41  1  0.91170000  0.36040000  0.09650000  1.0 -0.1537706537
F  F42  1  0.81520000  0.90350000  0.26390000  1.0 -0.1537706537
F  F43  1  0.18480000  0.44870000  0.08830000  1.0 -0.1537706537
F  F44  1  0.36040000  0.09650000  0.91170000  1.0 -0.1537706537
F  F45  1  0.63960000  0.55130000  0.73610000  1.0 -0.1537706537
F  F46  1  0.26390000  0.81520000  0.90350000  1.0 -0.1537706537
F  F47  1  0.73610000  0.63960000  0.55130000  1.0 -0.1537706537
F  F48  1  0.44870000  0.08830000  0.18480000  1.0 -0.1537706537
