# DDEC6 charges by PACMAN v1.1 (https://github.com/mtap-research/PACMAN-charge/)
data_XIWQIH_FSR_pacman
_symmetry_space_group_name_H-M   'P 1'
_cell_length_a   22.63040000
_cell_length_b   22.63040000
_cell_length_c   22.63040000
_cell_angle_alpha   109.47100000
_cell_angle_beta   109.47100000
_cell_angle_gamma   109.47100000
_symmetry_Int_Tables_number   1
_chemical_formula_structural   CaTiH16C32N4O11
_chemical_formula_sum   'Ca6 Ti6 H96 C192 N24 O66'
_cell_volume   8921.92047422
_cell_formula_units_Z   6
loop_
 _symmetry_equiv_pos_site_id
 _symmetry_equiv_pos_as_xyz
  1  'x, y, z'
loop_
 _atom_site_type_symbol
 _atom_site_label
 _atom_site_symmetry_multiplicity
 _atom_site_fract_x
 _atom_site_fract_y
 _atom_site_fract_z
 _atom_site_occupancy
 _atom_site_charge
Ca  Ca1  1  0.59070000  0.09070000  0.50000000  1.0 1.4259541531
Ca  Ca2  1  0.40930000  0.90930000  0.50000000  1.0 1.4259541531
Ca  Ca3  1  0.90930000  0.50000000  0.40930000  1.0 1.4259541531
Ca  Ca4  1  0.09070000  0.50000000  0.59070000  1.0 1.4259541531
Ca  Ca5  1  0.50000000  0.40930000  0.90930000  1.0 1.4259541531
Ca  Ca6  1  0.50000000  0.59070000  0.09070000  1.0 1.4259541531
Ti  Ti1  1  0.50000000  0.11080000  0.61080000  1.0 1.8376372833
Ti  Ti2  1  0.50000000  0.88920000  0.38920000  1.0 1.8376372833
Ti  Ti3  1  0.11080000  0.61080000  0.50000000  1.0 1.8376372833
Ti  Ti4  1  0.88920000  0.38920000  0.50000000  1.0 1.8348992367
Ti  Ti5  1  0.38920000  0.50000000  0.88920000  1.0 1.8376372833
Ti  Ti6  1  0.61080000  0.50000000  0.11080000  1.0 1.8376372833
H  H1  1  0.40148000  0.32330000  0.51614000  1.0 0.1204949302
H  H2  1  0.80716000  0.88534000  0.48386000  1.0 0.1204949302
H  H3  1  0.19284000  0.67670000  0.07818000  1.0 0.1204949302
H  H4  1  0.11466000  0.92182000  0.59852000  1.0 0.1204949302
H  H5  1  0.88534000  0.48386000  0.80716000  1.0 0.1204949302
H  H6  1  0.07818000  0.19284000  0.67670000  1.0 0.1204949302
H  H7  1  0.92182000  0.59852000  0.11466000  1.0 0.1204949302
H  H8  1  0.48386000  0.80716000  0.88534000  1.0 0.1204949302
H  H9  1  0.51614000  0.40148000  0.32330000  1.0 0.1204949302
H  H10  1  0.67670000  0.07818000  0.19284000  1.0 0.1204949302
H  H11  1  0.32330000  0.51614000  0.40148000  1.0 0.1204949302
H  H12  1  0.59852000  0.11466000  0.92182000  1.0 0.1204949302
H  H13  1  0.59852000  0.67670000  0.48386000  1.0 0.1204949302
H  H14  1  0.19284000  0.11466000  0.51614000  1.0 0.1204949302
H  H15  1  0.80716000  0.32330000  0.92182000  1.0 0.1204949302
H  H16  1  0.88534000  0.07818000  0.40148000  1.0 0.1204949302
H  H17  1  0.11466000  0.51614000  0.19284000  1.0 0.1204949302
H  H18  1  0.92182000  0.80716000  0.32330000  1.0 0.1204949302
H  H19  1  0.07818000  0.40148000  0.88534000  1.0 0.1204949302
H  H20  1  0.51614000  0.19284000  0.11466000  1.0 0.1204949302
H  H21  1  0.48386000  0.59852000  0.67670000  1.0 0.1204949302
H  H22  1  0.32330000  0.92182000  0.80716000  1.0 0.1204949302
H  H23  1  0.67670000  0.48386000  0.59852000  1.0 0.1204949302
H  H24  1  0.40148000  0.88534000  0.07818000  1.0 0.1204949302
H  H25  1  0.42806000  0.24821000  0.55175000  1.0 0.127448966
H  H26  1  0.69646000  0.87631000  0.44825000  1.0 0.127448966
H  H27  1  0.30354000  0.75179000  0.17985000  1.0 0.127448966
H  H28  1  0.12369000  0.82015000  0.57194000  1.0 0.127448966
H  H29  1  0.87631000  0.44825000  0.69646000  1.0 0.127448966
H  H30  1  0.17985000  0.30354000  0.75179000  1.0 0.127448966
H  H31  1  0.82015000  0.57194000  0.12369000  1.0 0.127448966
H  H32  1  0.44825000  0.69646000  0.87631000  1.0 0.127448966
H  H33  1  0.55175000  0.42806000  0.24821000  1.0 0.127448966
H  H34  1  0.75179000  0.17985000  0.30354000  1.0 0.127448966
H  H35  1  0.24821000  0.55175000  0.42806000  1.0 0.127448966
H  H36  1  0.57194000  0.12369000  0.82015000  1.0 0.127448966
H  H37  1  0.57194000  0.75179000  0.44825000  1.0 0.127448966
H  H38  1  0.30354000  0.12369000  0.55175000  1.0 0.127448966
H  H39  1  0.69646000  0.24821000  0.82015000  1.0 0.127448966
H  H40  1  0.87631000  0.17985000  0.42806000  1.0 0.127448966
H  H41  1  0.12369000  0.55175000  0.30354000  1.0 0.127448966
H  H42  1  0.82015000  0.69646000  0.24821000  1.0 0.127448966
H  H43  1  0.17985000  0.42806000  0.87631000  1.0 0.127448966
H  H44  1  0.55175000  0.30354000  0.12369000  1.0 0.127448966
H  H45  1  0.44825000  0.57194000  0.75179000  1.0 0.127448966
H  H46  1  0.24821000  0.82015000  0.69646000  1.0 0.127448966
H  H47  1  0.75179000  0.44825000  0.57194000  1.0 0.127448966
H  H48  1  0.42806000  0.87631000  0.17985000  1.0 0.127448966
H  H49  1  0.52558000  0.32732000  0.42836000  1.0 0.1204949302
H  H50  1  0.89896000  0.09722000  0.57164000  1.0 0.1204949302
H  H51  1  0.10104000  0.67268000  0.19826000  1.0 0.1204949302
H  H52  1  0.90278000  0.80174000  0.47442000  1.0 0.1204949302
H  H53  1  0.09722000  0.57164000  0.89896000  1.0 0.1204949302
H  H54  1  0.19826000  0.10104000  0.67268000  1.0 0.1204949302
H  H55  1  0.80174000  0.47442000  0.90278000  1.0 0.1204949302
H  H56  1  0.57164000  0.89896000  0.09722000  1.0 0.1204949302
H  H57  1  0.42836000  0.52558000  0.32732000  1.0 0.1204949302
H  H58  1  0.67268000  0.19826000  0.10104000  1.0 0.1204949302
H  H59  1  0.32732000  0.42836000  0.52558000  1.0 0.1204949302
H  H60  1  0.47442000  0.90278000  0.80174000  1.0 0.1204949302
H  H61  1  0.47442000  0.67268000  0.57164000  1.0 0.1204949302
H  H62  1  0.10104000  0.90278000  0.42836000  1.0 0.1204949302
H  H63  1  0.89896000  0.32732000  0.80174000  1.0 0.1204949302
H  H64  1  0.09722000  0.19826000  0.52558000  1.0 0.1204949302
H  H65  1  0.90278000  0.42836000  0.10104000  1.0 0.1204949302
H  H66  1  0.80174000  0.89896000  0.32732000  1.0 0.1204949302
H  H67  1  0.19826000  0.52558000  0.09722000  1.0 0.1204949302
H  H68  1  0.42836000  0.10104000  0.90278000  1.0 0.1204949302
H  H69  1  0.57164000  0.47442000  0.67268000  1.0 0.1204949302
H  H70  1  0.32732000  0.80174000  0.89896000  1.0 0.1204949302
H  H71  1  0.67268000  0.57164000  0.47442000  1.0 0.1204949302
H  H72  1  0.52558000  0.09722000  0.19826000  1.0 0.1204949302
H  H73  1  0.55217000  0.25224000  0.46399000  1.0 0.1204949302
H  H74  1  0.78825000  0.08818000  0.53601000  1.0 0.1204949302
H  H75  1  0.21175000  0.74776000  0.29993000  1.0 0.1204949302
H  H76  1  0.91182000  0.70007000  0.44783000  1.0 0.1204949302
H  H77  1  0.08818000  0.53601000  0.78825000  1.0 0.1204949302
H  H78  1  0.29993000  0.21175000  0.74776000  1.0 0.1204949302
H  H79  1  0.70007000  0.44783000  0.91182000  1.0 0.1204949302
H  H80  1  0.53601000  0.78825000  0.08818000  1.0 0.1204949302
H  H81  1  0.46399000  0.55217000  0.25224000  1.0 0.1204949302
H  H82  1  0.74776000  0.29993000  0.21175000  1.0 0.1204949302
H  H83  1  0.25224000  0.46399000  0.55217000  1.0 0.1204949302
H  H84  1  0.44783000  0.91182000  0.70007000  1.0 0.1204949302
H  H85  1  0.44783000  0.74776000  0.53601000  1.0 0.1204949302
H  H86  1  0.21175000  0.91182000  0.46399000  1.0 0.1204949302
H  H87  1  0.78825000  0.25224000  0.70007000  1.0 0.1204949302
H  H88  1  0.08818000  0.29993000  0.55217000  1.0 0.1204949302
H  H89  1  0.91182000  0.46399000  0.21175000  1.0 0.1204949302
H  H90  1  0.70007000  0.78825000  0.25224000  1.0 0.1204949302
H  H91  1  0.29993000  0.55217000  0.08818000  1.0 0.1204949302
H  H92  1  0.46399000  0.21175000  0.91182000  1.0 0.1204949302
H  H93  1  0.53601000  0.44783000  0.74776000  1.0 0.1204949302
H  H94  1  0.25224000  0.70007000  0.78825000  1.0 0.1204949302
H  H95  1  0.74776000  0.53601000  0.44783000  1.0 0.1204949302
H  H96  1  0.55217000  0.08818000  0.29993000  1.0 0.1204949302
C  C1  1  0.50900000  0.19500000  0.53400000  1.0 0.5904112656
C  C2  1  0.66100000  0.97500000  0.46600000  1.0 0.5904112656
C  C3  1  0.33900000  0.80500000  0.31400000  1.0 0.5904112656
C  C4  1  0.02500000  0.68600000  0.49100000  1.0 0.5904112656
C  C5  1  0.97500000  0.46600000  0.66100000  1.0 0.5904112656
C  C6  1  0.31400000  0.33900000  0.80500000  1.0 0.5904112656
C  C7  1  0.68600000  0.49100000  0.02500000  1.0 0.5904112656
C  C8  1  0.46600000  0.66100000  0.97500000  1.0 0.5904112656
C  C9  1  0.53400000  0.50900000  0.19500000  1.0 0.5904112656
C  C10  1  0.80500000  0.31400000  0.33900000  1.0 0.5904112656
C  C11  1  0.19500000  0.53400000  0.50900000  1.0 0.5904112656
C  C12  1  0.49100000  0.02500000  0.68600000  1.0 0.5904112656
C  C13  1  0.49100000  0.80500000  0.46600000  1.0 0.5904112656
C  C14  1  0.33900000  0.02500000  0.53400000  1.0 0.5904112656
C  C15  1  0.66100000  0.19500000  0.68600000  1.0 0.5904112656
C  C16  1  0.97500000  0.31400000  0.50900000  1.0 0.5904112656
C  C17  1  0.02500000  0.53400000  0.33900000  1.0 0.5904112656
C  C18  1  0.68600000  0.66100000  0.19500000  1.0 0.5904112656
C  C19  1  0.31400000  0.50900000  0.97500000  1.0 0.5904112656
C  C20  1  0.53400000  0.33900000  0.02500000  1.0 0.5904112656
C  C21  1  0.46600000  0.49100000  0.80500000  1.0 0.5904112656
C  C22  1  0.19500000  0.68600000  0.66100000  1.0 0.5904112656
C  C23  1  0.80500000  0.46600000  0.49100000  1.0 0.5904112656
C  C24  1  0.50900000  0.97500000  0.31400000  1.0 0.5904112656
C  C25  1  0.49200000  0.24300000  0.51100000  1.0 -0.062651707
C  C26  1  0.73200000  0.98100000  0.48900000  1.0 -0.062651707
C  C27  1  0.26800000  0.75700000  0.24900000  1.0 -0.062651707
C  C28  1  0.01900000  0.75100000  0.50800000  1.0 -0.062651707
C  C29  1  0.98100000  0.48900000  0.73200000  1.0 -0.062651707
C  C30  1  0.24900000  0.26800000  0.75700000  1.0 -0.062651707
C  C31  1  0.75100000  0.50800000  0.01900000  1.0 -0.062651707
C  C32  1  0.48900000  0.73200000  0.98100000  1.0 -0.062651707
C  C33  1  0.51100000  0.49200000  0.24300000  1.0 -0.062651707
C  C34  1  0.75700000  0.24900000  0.26800000  1.0 -0.062651707
C  C35  1  0.24300000  0.51100000  0.49200000  1.0 -0.062651707
C  C36  1  0.50800000  0.01900000  0.75100000  1.0 -0.062651707
C  C37  1  0.50800000  0.75700000  0.48900000  1.0 -0.062651707
C  C38  1  0.26800000  0.01900000  0.51100000  1.0 -0.062651707
C  C39  1  0.73200000  0.24300000  0.75100000  1.0 -0.062651707
C  C40  1  0.98100000  0.24900000  0.49200000  1.0 -0.062651707
C  C41  1  0.01900000  0.51100000  0.26800000  1.0 -0.062651707
C  C42  1  0.75100000  0.73200000  0.24300000  1.0 -0.062651707
C  C43  1  0.24900000  0.49200000  0.98100000  1.0 -0.062651707
C  C44  1  0.51100000  0.26800000  0.01900000  1.0 -0.062651707
C  C45  1  0.48900000  0.50800000  0.75700000  1.0 -0.062651707
C  C46  1  0.24300000  0.75100000  0.73200000  1.0 -0.062651707
C  C47  1  0.75700000  0.48900000  0.50800000  1.0 -0.062651707
C  C48  1  0.49200000  0.98100000  0.24900000  1.0 -0.062651707
C  C49  1  0.44400000  0.38000000  0.44600000  1.0 0.372309825
C  C50  1  0.93400000  0.99800000  0.55400000  1.0 0.372309825
C  C51  1  0.06600000  0.62000000  0.06400000  1.0 0.372309825
C  C52  1  0.00200000  0.93600000  0.55600000  1.0 0.372309825
C  C53  1  0.99800000  0.55400000  0.93400000  1.0 0.372309825
C  C54  1  0.06400000  0.06600000  0.62000000  1.0 0.372309825
C  C55  1  0.93600000  0.55600000  0.00200000  1.0 0.372309825
C  C56  1  0.55400000  0.93400000  0.99800000  1.0 0.372309825
C  C57  1  0.44600000  0.44400000  0.38000000  1.0 0.372309825
C  C58  1  0.62000000  0.06400000  0.06600000  1.0 0.372309825
C  C59  1  0.38000000  0.44600000  0.44400000  1.0 0.372309825
C  C60  1  0.55600000  0.00200000  0.93600000  1.0 0.372309825
C  C61  1  0.55600000  0.62000000  0.55400000  1.0 0.372309825
C  C62  1  0.06600000  0.00200000  0.44600000  1.0 0.372309825
C  C63  1  0.93400000  0.38000000  0.93600000  1.0 0.372309825
C  C64  1  0.99800000  0.06400000  0.44400000  1.0 0.372309825
C  C65  1  0.00200000  0.44600000  0.06600000  1.0 0.372309825
C  C66  1  0.93600000  0.93400000  0.38000000  1.0 0.372309825
C  C67  1  0.06400000  0.44400000  0.99800000  1.0 0.372309825
C  C68  1  0.44600000  0.06600000  0.00200000  1.0 0.372309825
C  C69  1  0.55400000  0.55600000  0.62000000  1.0 0.372309825
C  C70  1  0.38000000  0.93600000  0.93400000  1.0 0.372309825
C  C71  1  0.62000000  0.55400000  0.55600000  1.0 0.372309825
C  C72  1  0.44400000  0.99800000  0.06400000  1.0 0.372309825
C  C73  1  0.43300000  0.30900000  0.50600000  1.0 -0.120575362
C  C74  1  0.80300000  0.92700000  0.49400000  1.0 -0.120575362
C  C75  1  0.19700000  0.69100000  0.12400000  1.0 -0.120575362
C  C76  1  0.07300000  0.87600000  0.56700000  1.0 -0.120575362
C  C77  1  0.92700000  0.49400000  0.80300000  1.0 -0.120575362
C  C78  1  0.12400000  0.19700000  0.69100000  1.0 -0.120575362
C  C79  1  0.87600000  0.56700000  0.07300000  1.0 -0.120575362
C  C80  1  0.49400000  0.80300000  0.92700000  1.0 -0.120575362
C  C81  1  0.50600000  0.43300000  0.30900000  1.0 -0.120575362
C  C82  1  0.69100000  0.12400000  0.19700000  1.0 -0.120575362
C  C83  1  0.30900000  0.50600000  0.43300000  1.0 -0.120575362
C  C84  1  0.56700000  0.07300000  0.87600000  1.0 -0.120575362
C  C85  1  0.56700000  0.69100000  0.49400000  1.0 -0.120575362
C  C86  1  0.19700000  0.07300000  0.50600000  1.0 -0.120575362
C  C87  1  0.80300000  0.30900000  0.87600000  1.0 -0.120575362
C  C88  1  0.92700000  0.12400000  0.43300000  1.0 -0.120575362
C  C89  1  0.07300000  0.50600000  0.19700000  1.0 -0.120575362
C  C90  1  0.87600000  0.80300000  0.30900000  1.0 -0.120575362
C  C91  1  0.12400000  0.43300000  0.92700000  1.0 -0.120575362
C  C92  1  0.50600000  0.19700000  0.07300000  1.0 -0.120575362
C  C93  1  0.49400000  0.56700000  0.69100000  1.0 -0.120575362
C  C94  1  0.30900000  0.87600000  0.80300000  1.0 -0.120575362
C  C95  1  0.69100000  0.49400000  0.56700000  1.0 -0.120575362
C  C96  1  0.43300000  0.92700000  0.12400000  1.0 -0.120575362
C  C97  1  0.46100000  0.33200000  0.46900000  1.0 0.0096057227
C  C98  1  0.86300000  0.99200000  0.53100000  1.0 0.0096057227
C  C99  1  0.13700000  0.66800000  0.12900000  1.0 0.0096057227
C  C100  1  0.00800000  0.87100000  0.53900000  1.0 0.0096057227
C  C101  1  0.99200000  0.53100000  0.86300000  1.0 0.0096057227
C  C102  1  0.12900000  0.13700000  0.66800000  1.0 0.0096057227
C  C103  1  0.87100000  0.53900000  0.00800000  1.0 0.0096057227
C  C104  1  0.53100000  0.86300000  0.99200000  1.0 0.0096057227
C  C105  1  0.46900000  0.46100000  0.33200000  1.0 0.0096057227
C  C106  1  0.66800000  0.12900000  0.13700000  1.0 0.0096057227
C  C107  1  0.33200000  0.46900000  0.46100000  1.0 0.0096057227
C  C108  1  0.53900000  0.00800000  0.87100000  1.0 0.0096057227
C  C109  1  0.53900000  0.66800000  0.53100000  1.0 0.0096057227
C  C110  1  0.13700000  0.00800000  0.46900000  1.0 0.0096057227
C  C111  1  0.86300000  0.33200000  0.87100000  1.0 0.0096057227
C  C112  1  0.99200000  0.12900000  0.46100000  1.0 0.0096057227
C  C113  1  0.00800000  0.46900000  0.13700000  1.0 0.0096057227
C  C114  1  0.87100000  0.86300000  0.33200000  1.0 0.0096057227
C  C115  1  0.12900000  0.46100000  0.99200000  1.0 0.0096057227
C  C116  1  0.46900000  0.13700000  0.00800000  1.0 0.0096057227
C  C117  1  0.53100000  0.53900000  0.66800000  1.0 0.0096057227
C  C118  1  0.33200000  0.87100000  0.86300000  1.0 0.0096057227
C  C119  1  0.66800000  0.53100000  0.53900000  1.0 0.0096057227
C  C120  1  0.46100000  0.99200000  0.12900000  1.0 0.0096057227
C  C121  1  0.44800000  0.26400000  0.52600000  1.0 -0.1012084871
C  C122  1  0.73800000  0.92200000  0.47400000  1.0 -0.1012084871
C  C123  1  0.26200000  0.73600000  0.18400000  1.0 -0.1012084871
C  C124  1  0.07800000  0.81600000  0.55200000  1.0 -0.1012084871
C  C125  1  0.92200000  0.47400000  0.73800000  1.0 -0.1012084871
C  C126  1  0.18400000  0.26200000  0.73600000  1.0 -0.1012084871
C  C127  1  0.81600000  0.55200000  0.07800000  1.0 -0.1012084871
C  C128  1  0.47400000  0.73800000  0.92200000  1.0 -0.1012084871
C  C129  1  0.52600000  0.44800000  0.26400000  1.0 -0.1012084871
C  C130  1  0.73600000  0.18400000  0.26200000  1.0 -0.1012084871
C  C131  1  0.26400000  0.52600000  0.44800000  1.0 -0.1012084871
C  C132  1  0.55200000  0.07800000  0.81600000  1.0 -0.1012084871
C  C133  1  0.55200000  0.73600000  0.47400000  1.0 -0.1012084871
C  C134  1  0.26200000  0.07800000  0.52600000  1.0 -0.1012084871
C  C135  1  0.73800000  0.26400000  0.81600000  1.0 -0.1012084871
C  C136  1  0.92200000  0.18400000  0.44800000  1.0 -0.1012084871
C  C137  1  0.07800000  0.52600000  0.26200000  1.0 -0.1012084871
C  C138  1  0.81600000  0.73800000  0.26400000  1.0 -0.1012084871
C  C139  1  0.18400000  0.44800000  0.92200000  1.0 -0.1012084871
C  C140  1  0.52600000  0.26200000  0.07800000  1.0 -0.1012084871
C  C141  1  0.47400000  0.55200000  0.73600000  1.0 -0.1012084871
C  C142  1  0.26400000  0.81600000  0.73800000  1.0 -0.1012084871
C  C143  1  0.73600000  0.47400000  0.55200000  1.0 -0.1012084871
C  C144  1  0.44800000  0.92200000  0.18400000  1.0 -0.1012084871
C  C145  1  0.50600000  0.31200000  0.45400000  1.0 -0.120575362
C  C146  1  0.85800000  0.05200000  0.54600000  1.0 -0.120575362
C  C147  1  0.14200000  0.68800000  0.19400000  1.0 -0.120575362
C  C148  1  0.94800000  0.80600000  0.49400000  1.0 -0.120575362
C  C149  1  0.05200000  0.54600000  0.85800000  1.0 -0.120575362
C  C150  1  0.19400000  0.14200000  0.68800000  1.0 -0.120575362
C  C151  1  0.80600000  0.49400000  0.94800000  1.0 -0.120575362
C  C152  1  0.54600000  0.85800000  0.05200000  1.0 -0.120575362
C  C153  1  0.45400000  0.50600000  0.31200000  1.0 -0.120575362
C  C154  1  0.68800000  0.19400000  0.14200000  1.0 -0.120575362
C  C155  1  0.31200000  0.45400000  0.50600000  1.0 -0.120575362
C  C156  1  0.49400000  0.94800000  0.80600000  1.0 -0.1252451341
C  C157  1  0.49400000  0.68800000  0.54600000  1.0 -0.120575362
C  C158  1  0.14200000  0.94800000  0.45400000  1.0 -0.1252451341
C  C159  1  0.85800000  0.31200000  0.80600000  1.0 -0.120575362
C  C160  1  0.05200000  0.19400000  0.50600000  1.0 -0.120575362
C  C161  1  0.94800000  0.45400000  0.14200000  1.0 -0.120575362
C  C162  1  0.80600000  0.85800000  0.31200000  1.0 -0.120575362
C  C163  1  0.19400000  0.50600000  0.05200000  1.0 -0.120575362
C  C164  1  0.45400000  0.14200000  0.94800000  1.0 -0.120575362
C  C165  1  0.54600000  0.49400000  0.68800000  1.0 -0.120575362
C  C166  1  0.31200000  0.80600000  0.85800000  1.0 -0.120575362
C  C167  1  0.68800000  0.54600000  0.49400000  1.0 -0.120575362
C  C168  1  0.50600000  0.05200000  0.19400000  1.0 -0.120575362
C  C169  1  0.52200000  0.26700000  0.47500000  1.0 -0.1012084871
C  C170  1  0.79200000  0.04700000  0.52500000  1.0 -0.1012084871
C  C171  1  0.20800000  0.73300000  0.25500000  1.0 -0.1012084871
C  C172  1  0.95300000  0.74500000  0.47800000  1.0 -0.1012084871
C  C173  1  0.04700000  0.52500000  0.79200000  1.0 -0.1012084871
C  C174  1  0.25500000  0.20800000  0.73300000  1.0 -0.1012084871
C  C175  1  0.74500000  0.47800000  0.95300000  1.0 -0.1012084871
C  C176  1  0.52500000  0.79200000  0.04700000  1.0 -0.1012084871
C  C177  1  0.47500000  0.52200000  0.26700000  1.0 -0.1012084871
C  C178  1  0.73300000  0.25500000  0.20800000  1.0 -0.1012084871
C  C179  1  0.26700000  0.47500000  0.52200000  1.0 -0.1012084871
C  C180  1  0.47800000  0.95300000  0.74500000  1.0 -0.1012084871
C  C181  1  0.47800000  0.73300000  0.52500000  1.0 -0.1012084871
C  C182  1  0.20800000  0.95300000  0.47500000  1.0 -0.1012084871
C  C183  1  0.79200000  0.26700000  0.74500000  1.0 -0.1012084871
C  C184  1  0.04700000  0.25500000  0.52200000  1.0 -0.1012084871
C  C185  1  0.95300000  0.47500000  0.20800000  1.0 -0.1012084871
C  C186  1  0.74500000  0.79200000  0.26700000  1.0 -0.1012084871
C  C187  1  0.25500000  0.52200000  0.04700000  1.0 -0.1012084871
C  C188  1  0.47500000  0.20800000  0.95300000  1.0 -0.1012084871
C  C189  1  0.52500000  0.47800000  0.73300000  1.0 -0.1012084871
C  C190  1  0.26700000  0.74500000  0.79200000  1.0 -0.1012084871
C  C191  1  0.73300000  0.52500000  0.47800000  1.0 -0.1012084871
C  C192  1  0.52200000  0.04700000  0.25500000  1.0 -0.1012084871
N  N1  1  0.40180000  0.40380000  0.46400000  1.0 -0.3937054327
N  N2  1  0.93980000  0.93780000  0.53600000  1.0 -0.3937054327
N  N3  1  0.06020000  0.59620000  0.99800000  1.0 -0.3937054327
N  N4  1  0.06220000  0.00200000  0.59820000  1.0 -0.3937054327
N  N5  1  0.93780000  0.53600000  0.93980000  1.0 -0.3937054327
N  N6  1  0.99800000  0.06020000  0.59620000  1.0 -0.3937054327
N  N7  1  0.00200000  0.59820000  0.06220000  1.0 -0.3937054327
N  N8  1  0.53600000  0.93980000  0.93780000  1.0 -0.3937054327
N  N9  1  0.46400000  0.40180000  0.40380000  1.0 -0.3937054327
N  N10  1  0.59620000  0.99800000  0.06020000  1.0 -0.3937054327
N  N11  1  0.40380000  0.46400000  0.40180000  1.0 -0.3937054327
N  N12  1  0.59820000  0.06220000  0.00200000  1.0 -0.3937054327
N  N13  1  0.59820000  0.59620000  0.53600000  1.0 -0.3937054327
N  N14  1  0.06020000  0.06220000  0.46400000  1.0 -0.3937054327
N  N15  1  0.93980000  0.40380000  0.00200000  1.0 -0.3937054327
N  N16  1  0.93780000  0.99800000  0.40180000  1.0 -0.3937054327
N  N17  1  0.06220000  0.46400000  0.06020000  1.0 -0.3937054327
N  N18  1  0.00200000  0.93980000  0.40380000  1.0 -0.3937054327
N  N19  1  0.99800000  0.40180000  0.93780000  1.0 -0.3937054327
N  N20  1  0.46400000  0.06020000  0.06220000  1.0 -0.3937054327
N  N21  1  0.53600000  0.59820000  0.59620000  1.0 -0.3937054327
N  N22  1  0.40380000  0.00200000  0.93980000  1.0 -0.3937054327
N  N23  1  0.59620000  0.53600000  0.59820000  1.0 -0.3937054327
N  N24  1  0.40180000  0.93780000  0.99800000  1.0 -0.3937054327
O  O1  1  0.68800000  0.18800000  0.50000000  1.0 -0.3104239147
O  O2  1  0.31200000  0.81200000  0.50000000  1.0 -0.315066735
O  O3  1  0.81200000  0.50000000  0.31200000  1.0 -0.3104239147
O  O4  1  0.18800000  0.50000000  0.68800000  1.0 -0.3104239147
O  O5  1  0.50000000  0.31200000  0.81200000  1.0 -0.3104239147
O  O6  1  0.50000000  0.68800000  0.18800000  1.0 -0.3104239147
O  O7  1  0.50000000  0.04100000  0.54100000  1.0 -0.8470635812
O  O8  1  0.50000000  0.95900000  0.45900000  1.0 -0.8470635812
O  O9  1  0.04100000  0.54100000  0.50000000  1.0 -0.8430049519
O  O10  1  0.95900000  0.45900000  0.50000000  1.0 -0.8430049519
O  O11  1  0.45900000  0.50000000  0.95900000  1.0 -0.8470635812
O  O12  1  0.54100000  0.50000000  0.04100000  1.0 -0.8470635812
O  O13  1  0.50000000  0.19700000  0.69700000  1.0 -0.062651707
O  O14  1  0.50000000  0.80300000  0.30300000  1.0 -0.062651707
O  O15  1  0.19700000  0.69700000  0.50000000  1.0 -0.0496977947
O  O16  1  0.80300000  0.30300000  0.50000000  1.0 -0.0496977947
O  O17  1  0.30300000  0.50000000  0.80300000  1.0 -0.062651707
O  O18  1  0.69700000  0.50000000  0.19700000  1.0 -0.062651707
O  O19  1  0.49360000  0.18340000  0.57700000  1.0 -0.5330056127
O  O20  1  0.60640000  0.91660000  0.42300000  1.0 -0.5330056127
O  O21  1  0.39360000  0.81660000  0.31020000  1.0 -0.5330056127
O  O22  1  0.08340000  0.68980000  0.50640000  1.0 -0.5330056127
O  O23  1  0.91660000  0.42300000  0.60640000  1.0 -0.5330056127
O  O24  1  0.31020000  0.39360000  0.81660000  1.0 -0.5330056127
O  O25  1  0.68980000  0.50640000  0.08340000  1.0 -0.5330056127
O  O26  1  0.42300000  0.60640000  0.91660000  1.0 -0.5330056127
O  O27  1  0.57700000  0.49360000  0.18340000  1.0 -0.5330056127
O  O28  1  0.81660000  0.31020000  0.39360000  1.0 -0.5330056127
O  O29  1  0.18340000  0.57700000  0.49360000  1.0 -0.5330056127
O  O30  1  0.50640000  0.08340000  0.68980000  1.0 -0.5330056127
O  O31  1  0.50640000  0.81660000  0.42300000  1.0 -0.5330056127
O  O32  1  0.39360000  0.08340000  0.57700000  1.0 -0.5330056127
O  O33  1  0.60640000  0.18340000  0.68980000  1.0 -0.5330056127
O  O34  1  0.91660000  0.31020000  0.49360000  1.0 -0.5330056127
O  O35  1  0.08340000  0.57700000  0.39360000  1.0 -0.5330056127
O  O36  1  0.68980000  0.60640000  0.18340000  1.0 -0.5330056127
O  O37  1  0.31020000  0.49360000  0.91660000  1.0 -0.5330056127
O  O38  1  0.57700000  0.39360000  0.08340000  1.0 -0.5330056127
O  O39  1  0.42300000  0.50640000  0.81660000  1.0 -0.5330056127
O  O40  1  0.18340000  0.68980000  0.60640000  1.0 -0.5330056127
O  O41  1  0.81660000  0.42300000  0.50640000  1.0 -0.5330056127
O  O42  1  0.49360000  0.91660000  0.31020000  1.0 -0.5330056127
O  O43  1  0.53990000  0.16650000  0.51020000  1.0 -0.5399142058
O  O44  1  0.65630000  0.02970000  0.48980000  1.0 -0.5399142058
O  O45  1  0.34370000  0.83350000  0.37340000  1.0 -0.5399142058
O  O46  1  0.97030000  0.62660000  0.46010000  1.0 -0.5399142058
O  O47  1  0.02970000  0.48980000  0.65630000  1.0 -0.5399142058
O  O48  1  0.37340000  0.34370000  0.83350000  1.0 -0.5399142058
O  O49  1  0.62660000  0.46010000  0.97030000  1.0 -0.5399142058
O  O50  1  0.48980000  0.65630000  0.02970000  1.0 -0.5399142058
O  O51  1  0.51020000  0.53990000  0.16650000  1.0 -0.5399142058
O  O52  1  0.83350000  0.37340000  0.34370000  1.0 -0.5399142058
O  O53  1  0.16650000  0.51020000  0.53990000  1.0 -0.5399142058
O  O54  1  0.46010000  0.97030000  0.62660000  1.0 -0.5399142058
O  O55  1  0.46010000  0.83350000  0.48980000  1.0 -0.5399142058
O  O56  1  0.34370000  0.97030000  0.51020000  1.0 -0.5399142058
O  O57  1  0.65630000  0.16650000  0.62660000  1.0 -0.5399142058
O  O58  1  0.02970000  0.37340000  0.53990000  1.0 -0.5399142058
O  O59  1  0.97030000  0.51020000  0.34370000  1.0 -0.5399142058
O  O60  1  0.62660000  0.65630000  0.16650000  1.0 -0.5399142058
O  O61  1  0.37340000  0.53990000  0.02970000  1.0 -0.5399142058
O  O62  1  0.51020000  0.34370000  0.97030000  1.0 -0.5399142058
O  O63  1  0.48980000  0.46010000  0.83350000  1.0 -0.5399142058
O  O64  1  0.16650000  0.62660000  0.65630000  1.0 -0.5399142058
O  O65  1  0.83350000  0.48980000  0.46010000  1.0 -0.5399142058
O  O66  1  0.53990000  0.02970000  0.37340000  1.0 -0.5399142058
