# DDEC6 charges by PACMAN v1.1 (https://github.com/mtap-research/PACMAN-charge/)
data_XIXCOZ_ASR_pacman
_symmetry_space_group_name_H-M   'P 1'
_cell_length_a   6.93880000
_cell_length_b   16.51000000
_cell_length_c   20.81100000
_cell_angle_alpha   90.00000000
_cell_angle_beta   90.00000000
_cell_angle_gamma   90.00000000
_symmetry_Int_Tables_number   1
_chemical_formula_structural   CaH11C22O5
_chemical_formula_sum   'Ca4 H44 C88 O20'
_cell_volume   2384.09958587
_cell_formula_units_Z   4
loop_
 _symmetry_equiv_pos_site_id
 _symmetry_equiv_pos_as_xyz
  1  'x, y, z'
loop_
 _atom_site_type_symbol
 _atom_site_label
 _atom_site_symmetry_multiplicity
 _atom_site_fract_x
 _atom_site_fract_y
 _atom_site_fract_z
 _atom_site_occupancy
 _atom_site_charge
Ca  Ca1  1  0.41270000  0.00000000  0.77264000  1.0 1.3259013717
Ca  Ca2  1  0.58730000  0.00000000  0.22736000  1.0 1.3259013717
Ca  Ca3  1  0.08730000  0.00000000  0.27264000  1.0 1.3259013717
Ca  Ca4  1  0.91270000  0.00000000  0.72736000  1.0 1.3259013717
H  H1  1  0.33970000  0.81280000  0.69570000  1.0 0.1352295105
H  H2  1  0.18930000  0.69530000  0.66150000  1.0 0.1264833882
H  H3  1  0.66510000  0.62460000  0.57480000  1.0 0.1205139097
H  H4  1  0.82750000  0.73780000  0.61330000  1.0 0.1126550485
H  H5  1  0.13890000  0.70050000  0.53410000  1.0 0.1205139097
H  H6  1  0.66030000  0.81280000  0.30430000  1.0 0.1352295105
H  H7  1  0.81070000  0.69530000  0.33850000  1.0 0.1264833882
H  H8  1  0.33490000  0.62460000  0.42520000  1.0 0.1205139097
H  H9  1  0.17250000  0.73780000  0.38670000  1.0 0.1126550485
H  H10  1  0.86110000  0.70050000  0.46590000  1.0 0.1205139097
H  H11  1  0.16030000  0.18720000  0.19570000  1.0 0.1352295105
H  H12  1  0.31070000  0.30470000  0.16150000  1.0 0.1264833882
H  H13  1  0.83490000  0.37540000  0.07480000  1.0 0.1205139097
H  H14  1  0.67250000  0.26220000  0.11330000  1.0 0.1126550485
H  H15  1  0.36110000  0.29950000  0.03410000  1.0 0.1205139097
H  H16  1  0.83970000  0.18720000  0.80430000  1.0 0.1352295105
H  H17  1  0.68930000  0.30470000  0.83850000  1.0 0.1264833882
H  H18  1  0.16510000  0.37540000  0.92520000  1.0 0.1205139097
H  H19  1  0.32750000  0.26220000  0.88670000  1.0 0.1126550485
H  H20  1  0.63890000  0.29950000  0.96590000  1.0 0.1205139097
H  H21  1  0.66030000  0.18720000  0.30430000  1.0 0.1352295105
H  H22  1  0.81070000  0.30470000  0.33850000  1.0 0.1264833882
H  H23  1  0.33490000  0.37540000  0.42520000  1.0 0.1205139097
H  H24  1  0.17250000  0.26220000  0.38670000  1.0 0.1126550485
H  H25  1  0.86110000  0.29950000  0.46590000  1.0 0.1205139097
H  H26  1  0.33970000  0.18720000  0.69570000  1.0 0.1352295105
H  H27  1  0.18930000  0.30470000  0.66150000  1.0 0.1264833882
H  H28  1  0.66510000  0.37540000  0.57480000  1.0 0.1205139097
H  H29  1  0.82750000  0.26220000  0.61330000  1.0 0.1126550485
H  H30  1  0.13890000  0.29950000  0.53410000  1.0 0.1205139097
H  H31  1  0.83970000  0.81280000  0.80430000  1.0 0.1352295105
H  H32  1  0.68930000  0.69530000  0.83850000  1.0 0.1264833882
H  H33  1  0.16510000  0.62460000  0.92520000  1.0 0.1205139097
H  H34  1  0.32750000  0.73780000  0.88670000  1.0 0.1126550485
H  H35  1  0.63890000  0.70050000  0.96590000  1.0 0.1205139097
H  H36  1  0.16030000  0.81280000  0.19570000  1.0 0.1352295105
H  H37  1  0.31070000  0.69530000  0.16150000  1.0 0.1264833882
H  H38  1  0.83490000  0.62460000  0.07480000  1.0 0.1205139097
H  H39  1  0.67250000  0.73780000  0.11330000  1.0 0.1126550485
H  H40  1  0.36110000  0.70050000  0.03410000  1.0 0.1205139097
H  H41  1  0.52110000  0.50000000  0.62740000  1.0 0.1264833882
H  H42  1  0.47890000  0.50000000  0.37260000  1.0 0.1264833882
H  H43  1  0.97890000  0.50000000  0.12740000  1.0 0.1264833882
H  H44  1  0.02110000  0.50000000  0.87260000  1.0 0.1264833882
C  C1  1  0.69080000  0.86950000  0.67510000  1.0 0.5807154004
C  C2  1  0.59130000  0.79180000  0.65650000  1.0 -0.0240721656
C  C3  1  0.41040000  0.77530000  0.67020000  1.0 -0.088605561
C  C4  1  0.31870000  0.70570000  0.64920000  1.0 -0.1472929499
C  C5  1  0.41700000  0.65040000  0.60930000  1.0 0.0711041812
C  C6  1  0.59510000  0.66350000  0.59910000  1.0 -0.1281638022
C  C7  1  0.69360000  0.73170000  0.62150000  1.0 -0.0996066023
C  C8  1  0.31900000  0.57290000  0.58460000  1.0 0.0416885663
C  C9  1  0.15730000  0.57600000  0.54270000  1.0 0.0198043541
C  C10  1  0.08180000  0.65080000  0.52100000  1.0 -0.1472929499
C  C11  1  0.30920000  0.86950000  0.32490000  1.0 0.5807154004
C  C12  1  0.40870000  0.79180000  0.34350000  1.0 -0.0240721656
C  C13  1  0.58960000  0.77530000  0.32980000  1.0 -0.088605561
C  C14  1  0.68130000  0.70570000  0.35080000  1.0 -0.1472929499
C  C15  1  0.58300000  0.65040000  0.39070000  1.0 0.0711041812
C  C16  1  0.40490000  0.66350000  0.40090000  1.0 -0.1281638022
C  C17  1  0.30640000  0.73170000  0.37850000  1.0 -0.0996066023
C  C18  1  0.68100000  0.57290000  0.41540000  1.0 0.0416885663
C  C19  1  0.84270000  0.57600000  0.45730000  1.0 0.0198043541
C  C20  1  0.91820000  0.65080000  0.47900000  1.0 -0.1472929499
C  C21  1  0.80920000  0.13050000  0.17510000  1.0 0.5807154004
C  C22  1  0.90870000  0.20820000  0.15650000  1.0 -0.0240721656
C  C23  1  0.08960000  0.22470000  0.17020000  1.0 -0.088605561
C  C24  1  0.18130000  0.29430000  0.14920000  1.0 -0.1472929499
C  C25  1  0.08300000  0.34960000  0.10930000  1.0 0.0711041812
C  C26  1  0.90490000  0.33650000  0.09910000  1.0 -0.1281638022
C  C27  1  0.80640000  0.26830000  0.12150000  1.0 -0.0996066023
C  C28  1  0.18100000  0.42710000  0.08460000  1.0 0.0416885663
C  C29  1  0.34270000  0.42400000  0.04270000  1.0 0.0198043541
C  C30  1  0.41820000  0.34920000  0.02100000  1.0 -0.1472929499
C  C31  1  0.19080000  0.13050000  0.82490000  1.0 0.5807154004
C  C32  1  0.09130000  0.20820000  0.84350000  1.0 -0.0240721656
C  C33  1  0.91040000  0.22470000  0.82980000  1.0 -0.088605561
C  C34  1  0.81870000  0.29430000  0.85080000  1.0 -0.1472929499
C  C35  1  0.91700000  0.34960000  0.89070000  1.0 0.0711041812
C  C36  1  0.09510000  0.33650000  0.90090000  1.0 -0.1281638022
C  C37  1  0.19360000  0.26830000  0.87850000  1.0 -0.0996066023
C  C38  1  0.81900000  0.42710000  0.91540000  1.0 0.0416885663
C  C39  1  0.65730000  0.42400000  0.95730000  1.0 0.0198043541
C  C40  1  0.58180000  0.34920000  0.97900000  1.0 -0.1472929499
C  C41  1  0.30920000  0.13050000  0.32490000  1.0 0.5807154004
C  C42  1  0.40870000  0.20820000  0.34350000  1.0 -0.0240721656
C  C43  1  0.58960000  0.22470000  0.32980000  1.0 -0.088605561
C  C44  1  0.68130000  0.29430000  0.35080000  1.0 -0.1472929499
C  C45  1  0.58300000  0.34960000  0.39070000  1.0 0.0711041812
C  C46  1  0.40490000  0.33650000  0.40090000  1.0 -0.1281638022
C  C47  1  0.30640000  0.26830000  0.37850000  1.0 -0.0996066023
C  C48  1  0.68100000  0.42710000  0.41540000  1.0 0.0416885663
C  C49  1  0.84270000  0.42400000  0.45730000  1.0 0.0198043541
C  C50  1  0.91820000  0.34920000  0.47900000  1.0 -0.1472929499
C  C51  1  0.69080000  0.13050000  0.67510000  1.0 0.5807154004
C  C52  1  0.59130000  0.20820000  0.65650000  1.0 -0.0240721656
C  C53  1  0.41040000  0.22470000  0.67020000  1.0 -0.088605561
C  C54  1  0.31870000  0.29430000  0.64920000  1.0 -0.1472929499
C  C55  1  0.41700000  0.34960000  0.60930000  1.0 0.0711041812
C  C56  1  0.59510000  0.33650000  0.59910000  1.0 -0.1281638022
C  C57  1  0.69360000  0.26830000  0.62150000  1.0 -0.0996066023
C  C58  1  0.31900000  0.42710000  0.58460000  1.0 0.0416885663
C  C59  1  0.15730000  0.42400000  0.54270000  1.0 0.0198043541
C  C60  1  0.08180000  0.34920000  0.52100000  1.0 -0.1472929499
C  C61  1  0.19080000  0.86950000  0.82490000  1.0 0.5807154004
C  C62  1  0.09130000  0.79180000  0.84350000  1.0 -0.0240721656
C  C63  1  0.91040000  0.77530000  0.82980000  1.0 -0.088605561
C  C64  1  0.81870000  0.70570000  0.85080000  1.0 -0.1472929499
C  C65  1  0.91700000  0.65040000  0.89070000  1.0 0.0711041812
C  C66  1  0.09510000  0.66350000  0.90090000  1.0 -0.1281638022
C  C67  1  0.19360000  0.73170000  0.87850000  1.0 -0.0996066023
C  C68  1  0.81900000  0.57290000  0.91540000  1.0 0.0416885663
C  C69  1  0.65730000  0.57600000  0.95730000  1.0 0.0198043541
C  C70  1  0.58180000  0.65080000  0.97900000  1.0 -0.1472929499
C  C71  1  0.80920000  0.86950000  0.17510000  1.0 0.5807154004
C  C72  1  0.90870000  0.79180000  0.15650000  1.0 -0.0240721656
C  C73  1  0.08960000  0.77530000  0.17020000  1.0 -0.088605561
C  C74  1  0.18130000  0.70570000  0.14920000  1.0 -0.1472929499
C  C75  1  0.08300000  0.65040000  0.10930000  1.0 0.0711041812
C  C76  1  0.90490000  0.66350000  0.09910000  1.0 -0.1281638022
C  C77  1  0.80640000  0.73170000  0.12150000  1.0 -0.0996066023
C  C78  1  0.18100000  0.57290000  0.08460000  1.0 0.0416885663
C  C79  1  0.34270000  0.57600000  0.04270000  1.0 0.0198043541
C  C80  1  0.41820000  0.65080000  0.02100000  1.0 -0.1472929499
C  C81  1  0.40500000  0.50000000  0.60290000  1.0 -0.2071541573
C  C82  1  0.07760000  0.50000000  0.52270000  1.0 -0.0125881576
C  C83  1  0.59500000  0.50000000  0.39710000  1.0 -0.2071541573
C  C84  1  0.92240000  0.50000000  0.47730000  1.0 -0.0125881576
C  C85  1  0.09500000  0.50000000  0.10290000  1.0 -0.2071541573
C  C86  1  0.42240000  0.50000000  0.02270000  1.0 -0.0125881576
C  C87  1  0.90500000  0.50000000  0.89710000  1.0 -0.2071541573
C  C88  1  0.57760000  0.50000000  0.97730000  1.0 -0.0125881576
O  O1  1  0.61610000  0.91010000  0.72010000  1.0 -0.6216841812
O  O2  1  0.84740000  0.89130000  0.65000000  1.0 -0.5519105669
O  O3  1  0.38390000  0.91010000  0.27990000  1.0 -0.6216841812
O  O4  1  0.15260000  0.89130000  0.35000000  1.0 -0.5519105669
O  O5  1  0.88390000  0.08990000  0.22010000  1.0 -0.6216841812
O  O6  1  0.65260000  0.10870000  0.15000000  1.0 -0.5519105669
O  O7  1  0.11610000  0.08990000  0.77990000  1.0 -0.6216841812
O  O8  1  0.34740000  0.10870000  0.85000000  1.0 -0.5519105669
O  O9  1  0.38390000  0.08990000  0.27990000  1.0 -0.6216841812
O  O10  1  0.15260000  0.10870000  0.35000000  1.0 -0.5519105669
O  O11  1  0.61610000  0.08990000  0.72010000  1.0 -0.6216841812
O  O12  1  0.84740000  0.10870000  0.65000000  1.0 -0.5519105669
O  O13  1  0.11610000  0.91010000  0.77990000  1.0 -0.6216841812
O  O14  1  0.34740000  0.89130000  0.85000000  1.0 -0.5519105669
O  O15  1  0.88390000  0.91010000  0.22010000  1.0 -0.6216841812
O  O16  1  0.65260000  0.89130000  0.15000000  1.0 -0.5519105669
O  O17  1  0.72980000  0.00000000  0.83450000  1.0 -0.2728014241
O  O18  1  0.27020000  0.00000000  0.16550000  1.0 -0.2728014241
O  O19  1  0.77020000  0.00000000  0.33450000  1.0 -0.2728014241
O  O20  1  0.22980000  0.00000000  0.66550000  1.0 -0.2728014241
