# DDEC6 charges by PACMAN v1.1 (https://github.com/mtap-research/PACMAN-charge/)
data_XIXGOE_FSR_pacman
_symmetry_space_group_name_H-M   'P 1'
_cell_length_a   16.78680000
_cell_length_b   16.78850000
_cell_length_c   17.15640000
_cell_angle_alpha   102.19200000
_cell_angle_beta   102.24400000
_cell_angle_gamma   89.94100000
_symmetry_Int_Tables_number   1
_chemical_formula_structural   Zn6H70C96N3O22
_chemical_formula_sum   'Zn12 H140 C192 N6 O44'
_cell_volume   4613.70116374
_cell_formula_units_Z   2
loop_
 _symmetry_equiv_pos_site_id
 _symmetry_equiv_pos_as_xyz
  1  'x, y, z'
loop_
 _atom_site_type_symbol
 _atom_site_label
 _atom_site_symmetry_multiplicity
 _atom_site_fract_x
 _atom_site_fract_y
 _atom_site_fract_z
 _atom_site_occupancy
 _atom_site_charge
Zn  Zn1  1  0.41930000  0.58394000  0.35028000  1.0 0.9381989584
Zn  Zn2  1  0.58070000  0.41606000  0.64972000  1.0 0.9381989584
Zn  Zn3  1  0.51817000  0.71569000  0.49578000  1.0 0.9262127623
Zn  Zn4  1  0.48183000  0.28431000  0.50422000  1.0 0.9262127623
Zn  Zn5  1  0.50000000  0.50000000  0.50000000  1.0 1.0304724321
Zn  Zn6  1  0.43066000  0.48432000  0.16215000  1.0 0.9591880188
Zn  Zn7  1  0.56934000  0.51568000  0.83785000  1.0 0.9591880188
Zn  Zn8  1  0.50000000  0.50000000  0.00000000  1.0 1.0078360185
Zn  Zn9  1  0.29756000  0.52217000  0.01134000  1.0 0.8885584817
Zn  Zn10  1  0.70244000  0.47783000  0.98866000  1.0 0.8885584817
Zn  Zn11  1  0.45064000  0.71031000  0.24343000  1.0 0.9035661265
Zn  Zn12  1  0.54936000  0.28969000  0.75657000  1.0 0.9035661265
H  H1  1  0.56110000  0.58990000  0.42290000  1.0 0.3677720025
H  H2  1  0.43890000  0.41010000  0.57710000  1.0 0.3677720025
H  H3  1  0.57720000  0.75200000  0.64620000  1.0 0.3395684108
H  H4  1  0.42280000  0.24800000  0.35380000  1.0 0.3395684108
H  H5  1  0.55490000  0.67040000  0.62880000  1.0 0.3813420579
H  H6  1  0.44510000  0.32960000  0.37120000  1.0 0.3813420579
H  H7  1  0.31670000  0.48160000  0.86940000  1.0 0.2569055304
H  H8  1  0.68330000  0.51840000  0.13060000  1.0 0.2569055304
H  H9  1  0.52810000  0.56010000  0.27800000  1.0 0.3813420579
H  H10  1  0.47190000  0.43990000  0.72200000  1.0 0.3813420579
H  H11  1  0.42350000  0.59420000  0.09010000  1.0 0.3594584808
H  H12  1  0.57650000  0.40580000  0.90990000  1.0 0.3594584808
H  H13  1  0.31950000  0.34320000  0.44830000  1.0 0.1122794717
H  H14  1  0.68050000  0.65680000  0.55170000  1.0 0.1122794717
H  H15  1  0.17890000  0.45440000  0.28490000  1.0 0.119199152
H  H16  1  0.82110000  0.54560000  0.71510000  1.0 0.119199152
H  H17  1  0.20710000  0.25980000  0.44600000  1.0 0.1122794717
H  H18  1  0.79290000  0.74020000  0.55400000  1.0 0.1122794717
H  H19  1  0.06740000  0.36830000  0.27580000  1.0 0.1122794717
H  H20  1  0.93260000  0.63170000  0.72420000  1.0 0.1122794717
H  H21  1  0.97830000  0.34770000  0.36640000  1.0 0.1122794717
H  H22  1  0.02170000  0.65230000  0.63360000  1.0 0.119199152
H  H23  1  0.17040000  0.14900000  0.33210000  1.0 0.1122794717
H  H24  1  0.82960000  0.85100000  0.66790000  1.0 0.1122794717
H  H25  1  0.17490000  0.01270000  0.33460000  1.0 0.1122794717
H  H26  1  0.82510000  0.98730000  0.66540000  1.0 0.1122794717
H  H27  1  0.78510000  0.14520000  0.35520000  1.0 0.1122794717
H  H28  1  0.21490000  0.85480000  0.64480000  1.0 0.1122794717
H  H29  1  0.80450000  0.25800000  0.47040000  1.0 0.119199152
H  H30  1  0.19550000  0.74200000  0.52960000  1.0 0.119199152
H  H31  1  0.83970000  0.36330000  0.28760000  1.0 0.119199152
H  H32  1  0.16030000  0.63670000  0.71240000  1.0 0.119199152
H  H33  1  0.78680000  0.00900000  0.35100000  1.0 0.1122794717
H  H34  1  0.21320000  0.99100000  0.64900000  1.0 0.1122794717
H  H35  1  0.70000000  0.34140000  0.49010000  1.0 0.1309094697
H  H36  1  0.30000000  0.65860000  0.50990000  1.0 0.1309094697
H  H37  1  0.73620000  0.44730000  0.30860000  1.0 0.119199152
H  H38  1  0.26380000  0.55270000  0.69140000  1.0 0.119199152
H  H39  1  0.98860000  0.82100000  0.36460000  1.0 0.1309094697
H  H40  1  0.01140000  0.17900000  0.63540000  1.0 0.1309094697
H  H41  1  0.10640000  0.78110000  0.26820000  1.0 0.119199152
H  H42  1  0.89360000  0.21890000  0.73180000  1.0 0.119199152
H  H43  1  0.19590000  0.94940000  0.47520000  1.0 0.1122794717
H  H44  1  0.80410000  0.05060000  0.52480000  1.0 0.1122794717
H  H45  1  0.80870000  0.79860000  0.25740000  1.0 0.119199152
H  H46  1  0.19130000  0.20140000  0.74260000  1.0 0.119199152
H  H47  1  0.85090000  0.92600000  0.48870000  1.0 0.119199152
H  H48  1  0.14910000  0.07400000  0.51130000  1.0 0.119199152
H  H49  1  0.23290000  0.71640000  0.28890000  1.0 0.119199152
H  H50  1  0.76710000  0.28360000  0.71110000  1.0 0.119199152
H  H51  1  0.31250000  0.87780000  0.50000000  1.0 0.119199152
H  H52  1  0.68750000  0.12220000  0.50000000  1.0 0.119199152
H  H53  1  0.69150000  0.73860000  0.27600000  1.0 0.119199152
H  H54  1  0.30850000  0.26140000  0.72400000  1.0 0.119199152
H  H55  1  0.73420000  0.86480000  0.50770000  1.0 0.119199152
H  H56  1  0.26580000  0.13520000  0.49230000  1.0 0.119199152
H  H57  1  0.13130000  0.71580000  0.00640000  1.0 0.119199152
H  H58  1  0.86870000  0.28420000  0.99360000  1.0 0.119199152
H  H59  1  0.31140000  0.81960000  0.19940000  1.0 0.1122794717
H  H60  1  0.68860000  0.18040000  0.80060000  1.0 0.1122794717
H  H61  1  0.06590000  0.83760000  0.01690000  1.0 0.1122794717
H  H62  1  0.93410000  0.16240000  0.98310000  1.0 0.1122794717
H  H63  1  0.24380000  0.94310000  0.20890000  1.0 0.1122794717
H  H64  1  0.75620000  0.05690000  0.79110000  1.0 0.1122794717
H  H65  1  0.19010000  0.05000000  0.12110000  1.0 0.119199152
H  H66  1  0.80990000  0.95000000  0.87890000  1.0 0.119199152
H  H67  1  0.00380000  0.85150000  0.14250000  1.0 0.1122794717
H  H68  1  0.99620000  0.14850000  0.85750000  1.0 0.1122794717
H  H69  1  0.86920000  0.84660000  0.14250000  1.0 0.1122794717
H  H70  1  0.13080000  0.15340000  0.85750000  1.0 0.1122794717
H  H71  1  0.99240000  0.24310000  0.15750000  1.0 0.1122794717
H  H72  1  0.00760000  0.75690000  0.84250000  1.0 0.1122794717
H  H73  1  0.23920000  0.18600000  0.21370000  1.0 0.119199152
H  H74  1  0.76080000  0.81400000  0.78630000  1.0 0.119199152
H  H75  1  0.05000000  0.22570000  0.03410000  1.0 0.119199152
H  H76  1  0.95000000  0.77430000  0.96590000  1.0 0.119199152
H  H77  1  0.85570000  0.23730000  0.15900000  1.0 0.1122794717
H  H78  1  0.14430000  0.76270000  0.84100000  1.0 0.1122794717
H  H79  1  0.30740000  0.30240000  0.20550000  1.0 0.119199152
H  H80  1  0.69260000  0.69760000  0.79450000  1.0 0.119199152
H  H81  1  0.12380000  0.34140000  0.02590000  1.0 0.119199152
H  H82  1  0.87620000  0.65860000  0.97410000  1.0 0.119199152
H  H83  1  0.65940000  0.03190000  0.12750000  1.0 0.119199152
H  H84  1  0.34060000  0.96810000  0.87250000  1.0 0.119199152
H  H85  1  0.66880000  0.18140000  0.24160000  1.0 0.119199152
H  H86  1  0.33120000  0.81860000  0.75840000  1.0 0.119199152
H  H87  1  0.72180000  0.19880000  0.02720000  1.0 0.119199152
H  H88  1  0.27820000  0.80120000  0.97280000  1.0 0.119199152
H  H89  1  0.75710000  0.81400000  0.02790000  1.0 0.1122794717
H  H90  1  0.24290000  0.18600000  0.97210000  1.0 0.1122794717
H  H91  1  0.63760000  0.93380000  0.19850000  1.0 0.1122794717
H  H92  1  0.36240000  0.06620000  0.80150000  1.0 0.1122794717
H  H93  1  0.58850000  0.29630000  0.24050000  1.0 0.119199152
H  H94  1  0.41150000  0.70370000  0.75950000  1.0 0.119199152
H  H95  1  0.63560000  0.30620000  0.01860000  1.0 0.119199152
H  H96  1  0.36440000  0.69380000  0.98140000  1.0 0.119199152
H  H97  1  0.67580000  0.69710000  0.01410000  1.0 0.119199152
H  H98  1  0.32420000  0.30290000  0.98590000  1.0 0.1122794717
H  H99  1  0.55540000  0.81770000  0.18100000  1.0 0.119199152
H  H100  1  0.44460000  0.18230000  0.81900000  1.0 0.119199152
H  H101  1  0.55280000  0.90590000  0.33670000  1.0 0.0790132711
H  H102  1  0.44720000  0.09410000  0.66330000  1.0 0.0790132711
H  H103  1  0.37170000  0.03420000  0.31470000  1.0 0.0675012105
H  H104  1  0.62830000  0.96580000  0.68530000  1.0 0.0675012105
H  H105  1  0.37920000  0.03810000  0.41000000  1.0 0.0601914444
H  H106  1  0.62080000  0.96190000  0.59000000  1.0 0.0601914444
H  H107  1  0.35130000  0.95430000  0.34500000  1.0 0.0675012105
H  H108  1  0.64870000  0.04570000  0.65500000  1.0 0.0675012105
H  H109  1  0.58220000  0.02050000  0.42740000  1.0 0.0675012105
H  H110  1  0.41780000  0.97950000  0.57260000  1.0 0.0675012105
H  H111  1  0.51280000  0.07740000  0.45620000  1.0 0.0790132711
H  H112  1  0.48720000  0.92260000  0.54380000  1.0 0.0790132711
H  H113  1  0.53870000  0.08090000  0.37240000  1.0 0.0870856269
H  H114  1  0.46130000  0.91910000  0.62760000  1.0 0.0870856269
H  H115  1  0.25410000  0.35960000  0.88020000  1.0 0.119199152
H  H116  1  0.74590000  0.64040000  0.11980000  1.0 0.119199152
H  H117  1  0.20880000  0.38680000  0.79870000  1.0 0.119199152
H  H118  1  0.79120000  0.61320000  0.20130000  1.0 0.119199152
H  H119  1  0.16830000  0.40190000  0.87680000  1.0 0.1309094697
H  H120  1  0.83170000  0.59810000  0.12320000  1.0 0.1309094697
H  H121  1  0.17520000  0.56540000  0.87980000  1.0 0.1351525232
H  H122  1  0.82480000  0.43460000  0.12020000  1.0 0.1351525232
H  H123  1  0.18340000  0.50980000  0.79400000  1.0 0.1309094697
H  H124  1  0.81660000  0.49020000  0.20600000  1.0 0.1309094697
H  H125  1  0.24830000  0.58380000  0.83860000  1.0 0.119199152
H  H126  1  0.75170000  0.41620000  0.16140000  1.0 0.119199152
H  H127  1  0.37820000  0.91520000  0.33870000  1.0 0.0870856269
H  H128  1  0.62180000  0.08480000  0.66130000  1.0 0.0870856269
H  H129  1  0.41690000  0.08190000  0.37480000  1.0 0.0601914444
H  H130  1  0.58310000  0.91810000  0.62520000  1.0 0.0601914444
H  H131  1  0.49080000  0.08320000  0.45140000  1.0 0.0870856269
H  H132  1  0.50920000  0.91680000  0.54860000  1.0 0.0870856269
H  H133  1  0.40800000  0.03180000  0.44240000  1.0 0.0675012105
H  H134  1  0.59200000  0.96820000  0.55760000  1.0 0.0675012105
H  H135  1  0.59790000  0.98260000  0.40810000  1.0 0.0675012105
H  H136  1  0.40210000  0.01740000  0.59190000  1.0 0.0675012105
H  H137  1  0.56840000  0.04920000  0.35500000  1.0 0.0601914444
H  H138  1  0.43160000  0.95080000  0.64500000  1.0 0.0601914444
H  H139  1  0.56950000  0.95530000  0.31090000  1.0 0.0601914444
H  H140  1  0.43050000  0.04470000  0.68910000  1.0 0.0601914444
C  C1  1  0.36330000  0.75020000  0.40770000  1.0 0.5725427017
C  C2  1  0.63670000  0.24980000  0.59230000  1.0 0.5725427017
C  C3  1  0.33250000  0.46030000  0.36920000  1.0 0.5818959222
C  C4  1  0.66750000  0.53970000  0.63080000  1.0 0.5818959222
C  C5  1  0.26020000  0.40640000  0.36580000  1.0 -0.0333632563
C  C6  1  0.73980000  0.59360000  0.63420000  1.0 -0.0333632563
C  C7  1  0.26830000  0.34850000  0.41390000  1.0 -0.0997455274
C  C8  1  0.73170000  0.65150000  0.58610000  1.0 -0.0997455274
C  C9  1  0.18490000  0.41360000  0.31630000  1.0 -0.0926496311
C  C10  1  0.81510000  0.58640000  0.68370000  1.0 -0.0926496311
C  C11  1  0.20150000  0.29810000  0.41180000  1.0 -0.1424250215
C  C12  1  0.79850000  0.70190000  0.58820000  1.0 -0.1491487014
C  C13  1  0.11800000  0.36300000  0.31130000  1.0 -0.1596300387
C  C14  1  0.88200000  0.63700000  0.68870000  1.0 -0.1596300387
C  C15  1  0.12520000  0.30370000  0.35890000  1.0 0.0790132711
C  C16  1  0.87480000  0.69630000  0.64110000  1.0 0.0790132711
C  C17  1  0.05230000  0.25270000  0.35700000  1.0 0.0190229461
C  C18  1  0.94770000  0.74730000  0.64300000  1.0 0.0190229461
C  C19  1  0.05380000  0.16770000  0.35100000  1.0 0.036429858
C  C20  1  0.94620000  0.83230000  0.64900000  1.0 0.036429858
C  C21  1  0.97910000  0.29050000  0.36340000  1.0 -0.1972239606
C  C22  1  0.02090000  0.70950000  0.63660000  1.0 -0.1972239606
C  C23  1  0.98170000  0.12460000  0.35410000  1.0 0.0020619028
C  C24  1  0.01830000  0.87540000  0.64590000  1.0 0.0020619028
C  C25  1  0.12410000  0.12200000  0.34020000  1.0 -0.1596300387
C  C26  1  0.87590000  0.87800000  0.65980000  1.0 -0.1596300387
C  C27  1  0.90750000  0.25090000  0.36570000  1.0 0.0190229461
C  C28  1  0.09250000  0.74910000  0.63430000  1.0 0.0190229461
C  C29  1  0.90690000  0.16640000  0.35920000  1.0 0.036429858
C  C30  1  0.09310000  0.83360000  0.64080000  1.0 0.036429858
C  C31  1  0.98260000  0.03920000  0.35270000  1.0 -0.0002372935
C  C32  1  0.01740000  0.96080000  0.64730000  1.0 0.0020619028
C  C33  1  0.12680000  0.04080000  0.34090000  1.0 -0.1711115315
C  C34  1  0.87320000  0.95920000  0.65910000  1.0 -0.1711115315
C  C35  1  0.83510000  0.30040000  0.37570000  1.0 0.0790132711
C  C36  1  0.16490000  0.69960000  0.62430000  1.0 0.0790132711
C  C37  1  0.83530000  0.11880000  0.35580000  1.0 -0.1424250215
C  C38  1  0.16470000  0.88120000  0.64420000  1.0 -0.1491487014
C  C39  1  0.05750000  0.99830000  0.35140000  1.0 0.036429858
C  C40  1  0.94250000  0.00170000  0.64860000  1.0 0.036429858
C  C41  1  0.91070000  0.99540000  0.35450000  1.0 0.0295745528
C  C42  1  0.08930000  0.00460000  0.64550000  1.0 0.0295745528
C  C43  1  0.79040000  0.29660000  0.43690000  1.0 -0.1424250215
C  C44  1  0.20960000  0.70340000  0.56310000  1.0 -0.1424250215
C  C45  1  0.81160000  0.35850000  0.32910000  1.0 -0.1491487014
C  C46  1  0.18840000  0.64150000  0.67090000  1.0 -0.1491487014
C  C47  1  0.83600000  0.03810000  0.35340000  1.0 -0.1491487014
C  C48  1  0.16400000  0.96190000  0.64660000  1.0 -0.1491487014
C  C49  1  0.05960000  0.91560000  0.35720000  1.0 0.0295745528
C  C50  1  0.94040000  0.08440000  0.64280000  1.0 0.0295745528
C  C51  1  0.91470000  0.91390000  0.35950000  1.0 0.0295745528
C  C52  1  0.08530000  0.08610000  0.64050000  1.0 0.0295745528
C  C53  1  0.72840000  0.34620000  0.44890000  1.0 -0.0926496311
C  C54  1  0.27160000  0.65380000  0.55110000  1.0 -0.0926496311
C  C55  1  0.75020000  0.40820000  0.34140000  1.0 -0.1067626152
C  C56  1  0.24980000  0.59180000  0.65860000  1.0 -0.1067626152
C  C57  1  0.98720000  0.87660000  0.36090000  1.0 -0.1879691611
C  C58  1  0.01280000  0.12340000  0.63910000  1.0 -0.1879691611
C  C59  1  0.13940000  0.87450000  0.36780000  1.0 0.0870856269
C  C60  1  0.86060000  0.12550000  0.63220000  1.0 0.0870856269
C  C61  1  0.84080000  0.86990000  0.36980000  1.0 0.0790132711
C  C62  1  0.15920000  0.13010000  0.63020000  1.0 0.0790132711
C  C63  1  0.70600000  0.40320000  0.40270000  1.0 -0.0194263898
C  C64  1  0.29400000  0.59680000  0.59730000  1.0 -0.0194263898
C  C65  1  0.14920000  0.80330000  0.31360000  1.0 -0.1491487014
C  C66  1  0.85080000  0.19670000  0.68640000  1.0 -0.1491487014
C  C67  1  0.20220000  0.90120000  0.43700000  1.0 -0.1879691611
C  C68  1  0.79780000  0.09880000  0.56300000  1.0 -0.1879691611
C  C69  1  0.79350000  0.81360000  0.30860000  1.0 -0.1491487014
C  C70  1  0.20650000  0.18640000  0.69140000  1.0 -0.1491487014
C  C71  1  0.81820000  0.88810000  0.44450000  1.0 -0.1596300387
C  C72  1  0.18180000  0.11190000  0.55550000  1.0 -0.1596300387
C  C73  1  0.63740000  0.45990000  0.41520000  1.0 0.5818959222
C  C74  1  0.36260000  0.54010000  0.58480000  1.0 0.5818959222
C  C75  1  0.22480000  0.76370000  0.32730000  1.0 -0.0714737728
C  C76  1  0.77520000  0.23630000  0.67270000  1.0 -0.0714737728
C  C77  1  0.27260000  0.85980000  0.45090000  1.0 -0.1711115315
C  C78  1  0.72740000  0.14020000  0.54910000  1.0 -0.1756450787
C  C79  1  0.72350000  0.77770000  0.31960000  1.0 -0.0926496311
C  C80  1  0.27650000  0.22230000  0.68040000  1.0 -0.0926496311
C  C81  1  0.74820000  0.85180000  0.45580000  1.0 -0.1294813409
C  C82  1  0.25180000  0.14820000  0.54420000  1.0 -0.1294813409
C  C83  1  0.28580000  0.79270000  0.39480000  1.0 -0.0392508846
C  C84  1  0.71420000  0.20730000  0.60520000  1.0 -0.0392508846
C  C85  1  0.69990000  0.79830000  0.39370000  1.0 -0.0194263898
C  C86  1  0.30010000  0.20170000  0.60630000  1.0 -0.0194263898
C  C87  1  0.60590000  0.31380000  0.12910000  1.0 -0.0458231076
C  C88  1  0.39410000  0.68620000  0.87090000  1.0 -0.0458231076
C  C89  1  0.26950000  0.67600000  0.09880000  1.0 0.5725427017
C  C90  1  0.73050000  0.32400000  0.90120000  1.0 0.5725427017
C  C91  1  0.22810000  0.75520000  0.10390000  1.0 -0.0392508846
C  C92  1  0.77190000  0.24480000  0.89610000  1.0 -0.0392508846
C  C93  1  0.15390000  0.76150000  0.04850000  1.0 -0.1067626152
C  C94  1  0.84610000  0.23850000  0.95150000  1.0 -0.1067626152
C  C95  1  0.26080000  0.82270000  0.16280000  1.0 -0.0926496311
C  C96  1  0.73920000  0.17730000  0.83720000  1.0 -0.0926496311
C  C97  1  0.11460000  0.83350000  0.05560000  1.0 -0.1424250215
C  C98  1  0.88540000  0.16650000  0.94440000  1.0 -0.1424250215
C  C99  1  0.22020000  0.89600000  0.16940000  1.0 -0.1596300387
C  C100  1  0.77980000  0.10400000  0.83060000  1.0 -0.1596300387
C  C101  1  0.14370000  0.89910000  0.11650000  1.0 0.0790132711
C  C102  1  0.85630000  0.10090000  0.88350000  1.0 0.0790132711
C  C103  1  0.09710000  0.97380000  0.12530000  1.0 0.0295745528
C  C104  1  0.90290000  0.02620000  0.87470000  1.0 0.0295745528
C  C105  1  0.01440000  0.97150000  0.13290000  1.0 0.0295745528
C  C106  1  0.98560000  0.02850000  0.86710000  1.0 0.0295745528
C  C107  1  0.13460000  0.04850000  0.12520000  1.0 -0.1879691611
C  C108  1  0.86540000  0.95150000  0.87480000  1.0 -0.1879691611
C  C109  1  0.96990000  0.04350000  0.13620000  1.0 0.0020619028
C  C110  1  0.03010000  0.95650000  0.86380000  1.0 0.0020619028
C  C111  1  0.97360000  0.89900000  0.13860000  1.0 -0.1491487014
C  C112  1  0.02640000  0.10100000  0.86140000  1.0 -0.1491487014
C  C113  1  0.09310000  0.12000000  0.13070000  1.0 0.0295745528
C  C114  1  0.90690000  0.88000000  0.86930000  1.0 0.0295745528
C  C115  1  0.00910000  0.11880000  0.13820000  1.0 0.0295745528
C  C116  1  0.99090000  0.88120000  0.86180000  1.0 0.0295745528
C  C117  1  0.88450000  0.04010000  0.13730000  1.0 0.0051751945
C  C118  1  0.11550000  0.95990000  0.86270000  1.0 0.0051751945
C  C119  1  0.89370000  0.89620000  0.13860000  1.0 -0.1424250215
C  C120  1  0.10630000  0.10380000  0.86140000  1.0 -0.1424250215
C  C121  1  0.13600000  0.19580000  0.12580000  1.0 0.0790132711
C  C122  1  0.86400000  0.80420000  0.87420000  1.0 0.0790132711
C  C123  1  0.96500000  0.19170000  0.15020000  1.0 -0.1596300387
C  C124  1  0.03500000  0.80830000  0.84980000  1.0 -0.1596300387
C  C125  1  0.84140000  0.11240000  0.14120000  1.0 0.0295745528
C  C126  1  0.15860000  0.88760000  0.85880000  1.0 0.0295745528
C  C127  1  0.84480000  0.96330000  0.13330000  1.0 0.0295745528
C  C128  1  0.15520000  0.03670000  0.86670000  1.0 0.0295745528
C  C129  1  0.21490000  0.21830000  0.17650000  1.0 -0.1491487014
C  C130  1  0.78510000  0.78170000  0.82350000  1.0 -0.1491487014
C  C131  1  0.10200000  0.24120000  0.06910000  1.0 -0.1711115315
C  C132  1  0.89800000  0.75880000  0.93090000  1.0 -0.1711115315
C  C133  1  0.88400000  0.18820000  0.15130000  1.0 -0.1491487014
C  C134  1  0.11600000  0.81180000  0.84870000  1.0 -0.1491487014
C  C135  1  0.75520000  0.10810000  0.13710000  1.0 0.0295745528
C  C136  1  0.24480000  0.89190000  0.86290000  1.0 0.0295745528
C  C137  1  0.75860000  0.96130000  0.12860000  1.0 0.0190229461
C  C138  1  0.24140000  0.03870000  0.87140000  1.0 0.0190229461
C  C139  1  0.25520000  0.28670000  0.17100000  1.0 -0.0926496311
C  C140  1  0.74480000  0.71330000  0.82900000  1.0 -0.0926496311
C  C141  1  0.14590000  0.31000000  0.06480000  1.0 -0.1067626152
C  C142  1  0.85410000  0.69000000  0.93520000  1.0 -0.1067626152
C  C143  1  0.70380000  0.18000000  0.13530000  1.0 0.0675012105
C  C144  1  0.29620000  0.82000000  0.86470000  1.0 0.0675012105
C  C145  1  0.71660000  0.03400000  0.13060000  1.0 -0.1972239606
C  C146  1  0.28340000  0.96600000  0.86940000  1.0 -0.1972239606
C  C147  1  0.70930000  0.88540000  0.11900000  1.0 0.0790132711
C  C148  1  0.29070000  0.11460000  0.88100000  1.0 0.0790132711
C  C149  1  0.22160000  0.33333333  0.11660000  1.0 -0.0333632563
C  C150  1  0.77840000  0.66666667  0.88340000  1.0 -0.0333632563
C  C151  1  0.66340000  0.20840000  0.19750000  1.0 -0.1491487014
C  C152  1  0.33660000  0.79160000  0.80250000  1.0 -0.1491487014
C  C153  1  0.69380000  0.21790000  0.06980000  1.0 -0.1424250215
C  C154  1  0.30620000  0.78210000  0.93020000  1.0 -0.1424250215
C  C155  1  0.71800000  0.81440000  0.06060000  1.0 -0.1596300387
C  C156  1  0.28200000  0.18560000  0.93940000  1.0 -0.1596300387
C  C157  1  0.64640000  0.88540000  0.16170000  1.0 -0.1596300387
C  C158  1  0.35360000  0.11460000  0.83830000  1.0 -0.1596300387
C  C159  1  0.26920000  0.40770000  0.11080000  1.0 0.5870487288
C  C160  1  0.73080000  0.59230000  0.88920000  1.0 0.5870487288
C  C161  1  0.61480000  0.27610000  0.19680000  1.0 -0.0997455274
C  C162  1  0.38520000  0.72390000  0.80320000  1.0 -0.0997455274
C  C163  1  0.64400000  0.28270000  0.06530000  1.0 -0.0926496311
C  C164  1  0.35600000  0.71730000  0.93470000  1.0 -0.0926496311
C  C165  1  0.66870000  0.74550000  0.05170000  1.0 -0.0997455274
C  C166  1  0.33130000  0.25450000  0.94830000  1.0 -0.0997455274
C  C167  1  0.59710000  0.81650000  0.15110000  1.0 -0.0997455274
C  C168  1  0.40290000  0.18350000  0.84890000  1.0 -0.0997455274
C  C169  1  0.60810000  0.74600000  0.09760000  1.0 -0.0392508846
C  C170  1  0.39190000  0.25400000  0.90240000  1.0 -0.0392508846
C  C171  1  0.55540000  0.38510000  0.12520000  1.0 0.5818959222
C  C172  1  0.44460000  0.61490000  0.87480000  1.0 0.5818959222
C  C173  1  0.55490000  0.67080000  0.08840000  1.0 0.5870487288
C  C174  1  0.44510000  0.32920000  0.91160000  1.0 0.5870487288
C  C175  1  0.49530000  0.90990000  0.32880000  1.0 0.2285822601
C  C176  1  0.50470000  0.09010000  0.67120000  1.0 0.2285822601
C  C177  1  0.38640000  0.00400000  0.35830000  1.0 -0.1210633285
C  C178  1  0.61360000  0.99600000  0.64170000  1.0 -0.1210633285
C  C179  1  0.53070000  0.04520000  0.40890000  1.0 -0.0997455274
C  C180  1  0.46930000  0.95480000  0.59110000  1.0 -0.0997455274
C  C181  1  0.62180000  0.75990000  0.40530000  1.0 0.5725427017
C  C182  1  0.37820000  0.24010000  0.59470000  1.0 0.5725427017
C  C183  1  0.21990000  0.40070000  0.85860000  1.0 -0.3024832189
C  C184  1  0.78010000  0.59930000  0.14140000  1.0 -0.3024832189
C  C185  1  0.21370000  0.54080000  0.84700000  1.0 -0.3024832189
C  C186  1  0.78630000  0.45920000  0.15300000  1.0 -0.3024832189
C  C187  1  0.43270000  0.91160000  0.33140000  1.0 0.2285822601
C  C188  1  0.56730000  0.08840000  0.66860000  1.0 0.2285822601
C  C189  1  0.44580000  0.04970000  0.41250000  1.0 -0.0997455274
C  C190  1  0.55420000  0.95030000  0.58750000  1.0 -0.0997455274
C  C191  1  0.55990000  0.99280000  0.35980000  1.0 -0.1067626152
C  C192  1  0.44010000  0.00720000  0.64020000  1.0 -0.1067626152
N  N1  1  0.26510000  0.48570000  0.89000000  1.0 -0.2236196056
N  N2  1  0.73490000  0.51430000  0.11000000  1.0 -0.2236196056
N  N3  1  0.47010000  0.98250000  0.36590000  1.0 -0.1210633285
N  N4  1  0.52990000  0.01750000  0.63410000  1.0 -0.1210633285
N  N5  1  0.47750000  0.98010000  0.36740000  1.0 -0.1294813409
N  N6  1  0.52250000  0.01990000  0.63260000  1.0 -0.1294813409
O  O1  1  0.51120000  0.59960000  0.44610000  1.0 -0.8831300095
O  O2  1  0.48880000  0.40040000  0.55390000  1.0 -0.8831300095
O  O3  1  0.54100000  0.71600000  0.61430000  1.0 -0.668532516
O  O4  1  0.45900000  0.28400000  0.38570000  1.0 -0.668532516
O  O5  1  0.46850000  0.56680000  0.25820000  1.0 -0.8593754425
O  O6  1  0.53150000  0.43320000  0.74180000  1.0 -0.8593754425
O  O7  1  0.41260000  0.53440000  0.06730000  1.0 -0.8593754425
O  O8  1  0.58740000  0.46560000  0.93270000  1.0 -0.8593754425
O  O9  1  0.37580000  0.69470000  0.34950000  1.0 -0.5492837937
O  O10  1  0.62420000  0.30530000  0.65050000  1.0 -0.5423665896
O  O11  1  0.41520000  0.77090000  0.47570000  1.0 -0.5592359557
O  O12  1  0.58480000  0.22910000  0.52430000  1.0 -0.5592359557
O  O13  1  0.57430000  0.71700000  0.34560000  1.0 -0.5338118687
O  O14  1  0.42570000  0.28300000  0.65440000  1.0 -0.5338118687
O  O15  1  0.60970000  0.77490000  0.47810000  1.0 -0.5787702754
O  O16  1  0.39030000  0.22510000  0.52190000  1.0 -0.5787702754
O  O17  1  0.59140000  0.43990000  0.45940000  1.0 -0.5787702754
O  O18  1  0.40860000  0.56010000  0.54060000  1.0 -0.5787702754
O  O19  1  0.63230000  0.52200000  0.38640000  1.0 -0.5423665896
O  O20  1  0.36770000  0.47800000  0.61360000  1.0 -0.5423665896
O  O21  1  0.40580000  0.43630000  0.39150000  1.0 -0.6081999793
O  O22  1  0.59420000  0.56370000  0.60850000  1.0 -0.6081999793
O  O23  1  0.31880000  0.52620000  0.34830000  1.0 -0.4992577687
O  O24  1  0.68120000  0.47380000  0.65170000  1.0 -0.4992577687
O  O25  1  0.57240000  0.60670000  0.04450000  1.0 -0.5492837937
O  O26  1  0.42760000  0.39330000  0.95550000  1.0 -0.5492837937
O  O27  1  0.49540000  0.67830000  0.12270000  1.0 -0.5592359557
O  O28  1  0.50460000  0.32170000  0.87730000  1.0 -0.5592359557
O  O29  1  0.24010000  0.62110000  0.03380000  1.0 -0.5592359557
O  O30  1  0.75990000  0.37890000  0.96620000  1.0 -0.5592359557
O  O31  1  0.32740000  0.66800000  0.15420000  1.0 -0.5338118687
O  O32  1  0.67260000  0.33200000  0.84580000  1.0 -0.5338118687
O  O33  1  0.24490000  0.43600000  0.04680000  1.0 -0.5492837937
O  O34  1  0.75510000  0.56400000  0.95320000  1.0 -0.5492837937
O  O35  1  0.57210000  0.43670000  0.08780000  1.0 -0.5729152813
O  O36  1  0.42790000  0.56330000  0.91220000  1.0 -0.5729152813
O  O37  1  0.49570000  0.38940000  0.16220000  1.0 -0.5492837937
O  O38  1  0.50430000  0.61060000  0.83780000  1.0 -0.5492837937
O  O39  1  0.32870000  0.43420000  0.16860000  1.0 -0.5423665896
O  O40  1  0.67130000  0.56580000  0.83140000  1.0 -0.5338118687
O  O41  1  0.45600000  0.85100000  0.28790000  1.0 -0.4162847653
O  O42  1  0.54400000  0.14900000  0.71210000  1.0 -0.4162847653
O  O43  1  0.44300000  0.85400000  0.29600000  1.0 -0.3709480867
O  O44  1  0.55700000  0.14600000  0.70400000  1.0 -0.3709480867
