# DDEC6 charges by PACMAN v1.1 (https://github.com/mtap-research/PACMAN-charge/)
data_XIZSIL_ASR_pacman
_symmetry_space_group_name_H-M   'P 1'
_cell_length_a   13.73060000
_cell_length_b   15.64920000
_cell_length_c   23.06620000
_cell_angle_alpha   90.00000000
_cell_angle_beta   90.00000000
_cell_angle_gamma   90.00000000
_symmetry_Int_Tables_number   1
_chemical_formula_structural   ZnH9C17O5
_chemical_formula_sum   'Zn8 H72 C136 O40'
_cell_volume   4956.30141331
_cell_formula_units_Z   8
loop_
 _symmetry_equiv_pos_site_id
 _symmetry_equiv_pos_as_xyz
  1  'x, y, z'
loop_
 _atom_site_type_symbol
 _atom_site_label
 _atom_site_symmetry_multiplicity
 _atom_site_fract_x
 _atom_site_fract_y
 _atom_site_fract_z
 _atom_site_occupancy
 _atom_site_charge
Zn  Zn1  1  0.87762000  0.21184000  0.25000000  1.0 0.9376341544
Zn  Zn2  1  0.66212000  0.20866000  0.25000000  1.0 0.9318632028
Zn  Zn3  1  0.62238000  0.21184000  0.75000000  1.0 0.9376341544
Zn  Zn4  1  0.83788000  0.20866000  0.75000000  1.0 0.9318632028
Zn  Zn5  1  0.12238000  0.78816000  0.75000000  1.0 0.9376341544
Zn  Zn6  1  0.33788000  0.79134000  0.75000000  1.0 0.9318632028
Zn  Zn7  1  0.37762000  0.78816000  0.25000000  1.0 0.9376341544
Zn  Zn8  1  0.16212000  0.79134000  0.25000000  1.0 0.9318632028
H  H1  1  0.82610000  0.70497000  0.12644000  1.0 0.3415346883
H  H2  1  0.63254000  0.03456000  0.10380000  1.0 0.1184475665
H  H3  1  0.90341000  0.56251000  0.08945000  1.0 0.1089839629
H  H4  1  0.62628000  0.91080000  0.04632000  1.0 0.1184475665
H  H5  1  0.62199000  0.51120000  0.04838000  1.0 0.1184475665
H  H6  1  0.90664000  0.43712000  0.14484000  1.0 0.1184475665
H  H7  1  0.89891000  0.85223000  0.09341000  1.0 0.1089839629
H  H8  1  0.62827000  0.38851000  0.10580000  1.0 0.1089839629
H  H9  1  0.90957000  0.97619000  0.14788000  1.0 0.1255453072
H  H10  1  0.67390000  0.70497000  0.87356000  1.0 0.3415346883
H  H11  1  0.86746000  0.03456000  0.89620000  1.0 0.1184475665
H  H12  1  0.59659000  0.56251000  0.91055000  1.0 0.1089839629
H  H13  1  0.87372000  0.91080000  0.95368000  1.0 0.1184475665
H  H14  1  0.87801000  0.51120000  0.95162000  1.0 0.1184475665
H  H15  1  0.59336000  0.43712000  0.85516000  1.0 0.1184475665
H  H16  1  0.60109000  0.85223000  0.90659000  1.0 0.1089839629
H  H17  1  0.87173000  0.38851000  0.89420000  1.0 0.1089839629
H  H18  1  0.59043000  0.97619000  0.85212000  1.0 0.1255453072
H  H19  1  0.82610000  0.70497000  0.37356000  1.0 0.3415346883
H  H20  1  0.63254000  0.03456000  0.39620000  1.0 0.1184475665
H  H21  1  0.90341000  0.56251000  0.41055000  1.0 0.1089839629
H  H22  1  0.62628000  0.91080000  0.45368000  1.0 0.1184475665
H  H23  1  0.62199000  0.51120000  0.45162000  1.0 0.1184475665
H  H24  1  0.90664000  0.43712000  0.35516000  1.0 0.1184475665
H  H25  1  0.89891000  0.85223000  0.40659000  1.0 0.1089839629
H  H26  1  0.62827000  0.38851000  0.39420000  1.0 0.1089839629
H  H27  1  0.90957000  0.97619000  0.35212000  1.0 0.1255453072
H  H28  1  0.67390000  0.70497000  0.62644000  1.0 0.3415346883
H  H29  1  0.86746000  0.03456000  0.60380000  1.0 0.1184475665
H  H30  1  0.59659000  0.56251000  0.58945000  1.0 0.1089839629
H  H31  1  0.87372000  0.91080000  0.54632000  1.0 0.1184475665
H  H32  1  0.87801000  0.51120000  0.54838000  1.0 0.1184475665
H  H33  1  0.59336000  0.43712000  0.64484000  1.0 0.1184475665
H  H34  1  0.60109000  0.85223000  0.59341000  1.0 0.1089839629
H  H35  1  0.87173000  0.38851000  0.60580000  1.0 0.1089839629
H  H36  1  0.59043000  0.97619000  0.64788000  1.0 0.1255453072
H  H37  1  0.17390000  0.29503000  0.62644000  1.0 0.3415346883
H  H38  1  0.36746000  0.96544000  0.60380000  1.0 0.1184475665
H  H39  1  0.09659000  0.43749000  0.58945000  1.0 0.1089839629
H  H40  1  0.37372000  0.08920000  0.54632000  1.0 0.1184475665
H  H41  1  0.37801000  0.48880000  0.54838000  1.0 0.1184475665
H  H42  1  0.09336000  0.56288000  0.64484000  1.0 0.1184475665
H  H43  1  0.10109000  0.14777000  0.59341000  1.0 0.1089839629
H  H44  1  0.37173000  0.61149000  0.60580000  1.0 0.1089839629
H  H45  1  0.09043000  0.02381000  0.64788000  1.0 0.1255453072
H  H46  1  0.32610000  0.29503000  0.37356000  1.0 0.3415346883
H  H47  1  0.13254000  0.96544000  0.39620000  1.0 0.1184475665
H  H48  1  0.40341000  0.43749000  0.41055000  1.0 0.1089839629
H  H49  1  0.12628000  0.08920000  0.45368000  1.0 0.1184475665
H  H50  1  0.12199000  0.48880000  0.45162000  1.0 0.1184475665
H  H51  1  0.40664000  0.56288000  0.35516000  1.0 0.1184475665
H  H52  1  0.39891000  0.14777000  0.40659000  1.0 0.1089839629
H  H53  1  0.12827000  0.61149000  0.39420000  1.0 0.1089839629
H  H54  1  0.40957000  0.02381000  0.35212000  1.0 0.1255453072
H  H55  1  0.17390000  0.29503000  0.87356000  1.0 0.3415346883
H  H56  1  0.36746000  0.96544000  0.89620000  1.0 0.1184475665
H  H57  1  0.09659000  0.43749000  0.91055000  1.0 0.1089839629
H  H58  1  0.37372000  0.08920000  0.95368000  1.0 0.1184475665
H  H59  1  0.37801000  0.48880000  0.95162000  1.0 0.1184475665
H  H60  1  0.09336000  0.56288000  0.85516000  1.0 0.1184475665
H  H61  1  0.10109000  0.14777000  0.90659000  1.0 0.1089839629
H  H62  1  0.37173000  0.61149000  0.89420000  1.0 0.1089839629
H  H63  1  0.09043000  0.02381000  0.85212000  1.0 0.1255453072
H  H64  1  0.32610000  0.29503000  0.12644000  1.0 0.3415346883
H  H65  1  0.13254000  0.96544000  0.10380000  1.0 0.1184475665
H  H66  1  0.40341000  0.43749000  0.08945000  1.0 0.1089839629
H  H67  1  0.12628000  0.08920000  0.04632000  1.0 0.1184475665
H  H68  1  0.12199000  0.48880000  0.04838000  1.0 0.1184475665
H  H69  1  0.40664000  0.56288000  0.14484000  1.0 0.1184475665
H  H70  1  0.39891000  0.14777000  0.09341000  1.0 0.1089839629
H  H71  1  0.12827000  0.61149000  0.10580000  1.0 0.1089839629
H  H72  1  0.40957000  0.02381000  0.14788000  1.0 0.1255453072
C  C1  1  0.75700000  0.63130000  0.02970000  1.0 -0.107403607
C  C2  1  0.77100000  0.01680000  0.13320000  1.0 -0.0436221481
C  C3  1  0.76150000  0.54990000  0.06330000  1.0 0.1003658391
C  C4  1  0.68730000  0.99760000  0.10190000  1.0 -0.0903452332
C  C5  1  0.77080000  0.09120000  0.17340000  1.0 0.590416684
C  C6  1  0.75600000  0.79090000  0.02980000  1.0 -0.0843029253
C  C7  1  0.76450000  0.86980000  0.06430000  1.0 0.0947632344
C  C8  1  0.76870000  0.40450000  0.13300000  1.0 -0.0257291332
C  C9  1  0.84690000  0.52770000  0.09240000  1.0 -0.1852234833
C  C10  1  0.68370000  0.92400000  0.06750000  1.0 -0.1592234965
C  C11  1  0.68020000  0.49720000  0.06850000  1.0 -0.1592234965
C  C12  1  0.84780000  0.45340000  0.12620000  1.0 -0.0903452332
C  C13  1  0.76960000  0.32880000  0.17460000  1.0 0.590416684
C  C14  1  0.76110000  0.70910000  0.06020000  1.0 0.2572066701
C  C15  1  0.84450000  0.88970000  0.09480000  1.0 -0.1592234965
C  C16  1  0.68370000  0.42460000  0.10280000  1.0 -0.0959467449
C  C17  1  0.85070000  0.96290000  0.12830000  1.0 -0.0903452332
C  C18  1  0.74300000  0.63130000  0.97030000  1.0 -0.107403607
C  C19  1  0.72900000  0.01680000  0.86680000  1.0 -0.0436221481
C  C20  1  0.73850000  0.54990000  0.93670000  1.0 0.1003658391
C  C21  1  0.81270000  0.99760000  0.89810000  1.0 -0.0903452332
C  C22  1  0.72920000  0.09120000  0.82660000  1.0 0.590416684
C  C23  1  0.74400000  0.79090000  0.97020000  1.0 -0.0843029253
C  C24  1  0.73550000  0.86980000  0.93570000  1.0 0.0947632344
C  C25  1  0.73130000  0.40450000  0.86700000  1.0 -0.0257291332
C  C26  1  0.65310000  0.52770000  0.90760000  1.0 -0.1852234833
C  C27  1  0.81630000  0.92400000  0.93250000  1.0 -0.1592234965
C  C28  1  0.81980000  0.49720000  0.93150000  1.0 -0.1592234965
C  C29  1  0.65220000  0.45340000  0.87380000  1.0 -0.0903452332
C  C30  1  0.73040000  0.32880000  0.82540000  1.0 0.590416684
C  C31  1  0.73890000  0.70910000  0.93980000  1.0 0.2572066701
C  C32  1  0.65550000  0.88970000  0.90520000  1.0 -0.1592234965
C  C33  1  0.81630000  0.42460000  0.89720000  1.0 -0.0959467449
C  C34  1  0.64930000  0.96290000  0.87170000  1.0 -0.0903452332
C  C35  1  0.75700000  0.63130000  0.47030000  1.0 -0.107403607
C  C36  1  0.77100000  0.01680000  0.36680000  1.0 -0.0436221481
C  C37  1  0.76150000  0.54990000  0.43670000  1.0 0.1003658391
C  C38  1  0.68730000  0.99760000  0.39810000  1.0 -0.0903452332
C  C39  1  0.77080000  0.09120000  0.32660000  1.0 0.590416684
C  C40  1  0.75600000  0.79090000  0.47020000  1.0 -0.0843029253
C  C41  1  0.76450000  0.86980000  0.43570000  1.0 0.0947632344
C  C42  1  0.76870000  0.40450000  0.36700000  1.0 -0.0257291332
C  C43  1  0.84690000  0.52770000  0.40760000  1.0 -0.1852234833
C  C44  1  0.68370000  0.92400000  0.43250000  1.0 -0.1592234965
C  C45  1  0.68020000  0.49720000  0.43150000  1.0 -0.1592234965
C  C46  1  0.84780000  0.45340000  0.37380000  1.0 -0.0903452332
C  C47  1  0.76960000  0.32880000  0.32540000  1.0 0.590416684
C  C48  1  0.76110000  0.70910000  0.43980000  1.0 0.2572066701
C  C49  1  0.84450000  0.88970000  0.40520000  1.0 -0.1592234965
C  C50  1  0.68370000  0.42460000  0.39720000  1.0 -0.0959467449
C  C51  1  0.85070000  0.96290000  0.37170000  1.0 -0.0903452332
C  C52  1  0.74300000  0.63130000  0.52970000  1.0 -0.107403607
C  C53  1  0.72900000  0.01680000  0.63320000  1.0 -0.0436221481
C  C54  1  0.73850000  0.54990000  0.56330000  1.0 0.1003658391
C  C55  1  0.81270000  0.99760000  0.60190000  1.0 -0.0903452332
C  C56  1  0.72920000  0.09120000  0.67340000  1.0 0.590416684
C  C57  1  0.74400000  0.79090000  0.52980000  1.0 -0.0843029253
C  C58  1  0.73550000  0.86980000  0.56430000  1.0 0.0947632344
C  C59  1  0.73130000  0.40450000  0.63300000  1.0 -0.0257291332
C  C60  1  0.65310000  0.52770000  0.59240000  1.0 -0.1852234833
C  C61  1  0.81630000  0.92400000  0.56750000  1.0 -0.1592234965
C  C62  1  0.81980000  0.49720000  0.56850000  1.0 -0.1592234965
C  C63  1  0.65220000  0.45340000  0.62620000  1.0 -0.0903452332
C  C64  1  0.73040000  0.32880000  0.67460000  1.0 0.590416684
C  C65  1  0.73890000  0.70910000  0.56020000  1.0 0.2572066701
C  C66  1  0.65550000  0.88970000  0.59480000  1.0 -0.1592234965
C  C67  1  0.81630000  0.42460000  0.60280000  1.0 -0.0959467449
C  C68  1  0.64930000  0.96290000  0.62830000  1.0 -0.0903452332
C  C69  1  0.24300000  0.36870000  0.52970000  1.0 -0.107403607
C  C70  1  0.22900000  0.98320000  0.63320000  1.0 -0.0436221481
C  C71  1  0.23850000  0.45010000  0.56330000  1.0 0.1003658391
C  C72  1  0.31270000  0.00240000  0.60190000  1.0 -0.0903452332
C  C73  1  0.22920000  0.90880000  0.67340000  1.0 0.590416684
C  C74  1  0.24400000  0.20910000  0.52980000  1.0 -0.0843029253
C  C75  1  0.23550000  0.13020000  0.56430000  1.0 0.0947632344
C  C76  1  0.23130000  0.59550000  0.63300000  1.0 -0.0257291332
C  C77  1  0.15310000  0.47230000  0.59240000  1.0 -0.1852234833
C  C78  1  0.31630000  0.07600000  0.56750000  1.0 -0.1592234965
C  C79  1  0.31980000  0.50280000  0.56850000  1.0 -0.1592234965
C  C80  1  0.15220000  0.54660000  0.62620000  1.0 -0.0903452332
C  C81  1  0.23040000  0.67120000  0.67460000  1.0 0.590416684
C  C82  1  0.23890000  0.29090000  0.56020000  1.0 0.2572066701
C  C83  1  0.15550000  0.11030000  0.59480000  1.0 -0.1592234965
C  C84  1  0.31630000  0.57540000  0.60280000  1.0 -0.0959467449
C  C85  1  0.14930000  0.03710000  0.62830000  1.0 -0.0903452332
C  C86  1  0.25700000  0.36870000  0.47030000  1.0 -0.107403607
C  C87  1  0.27100000  0.98320000  0.36680000  1.0 -0.0436221481
C  C88  1  0.26150000  0.45010000  0.43670000  1.0 0.1003658391
C  C89  1  0.18730000  0.00240000  0.39810000  1.0 -0.0903452332
C  C90  1  0.27080000  0.90880000  0.32660000  1.0 0.590416684
C  C91  1  0.25600000  0.20910000  0.47020000  1.0 -0.0843029253
C  C92  1  0.26450000  0.13020000  0.43570000  1.0 0.0947632344
C  C93  1  0.26870000  0.59550000  0.36700000  1.0 -0.0257291332
C  C94  1  0.34690000  0.47230000  0.40760000  1.0 -0.1852234833
C  C95  1  0.18370000  0.07600000  0.43250000  1.0 -0.1592234965
C  C96  1  0.18020000  0.50280000  0.43150000  1.0 -0.1592234965
C  C97  1  0.34780000  0.54660000  0.37380000  1.0 -0.0903452332
C  C98  1  0.26960000  0.67120000  0.32540000  1.0 0.590416684
C  C99  1  0.26110000  0.29090000  0.43980000  1.0 0.2572066701
C  C100  1  0.34450000  0.11030000  0.40520000  1.0 -0.1592234965
C  C101  1  0.18370000  0.57540000  0.39720000  1.0 -0.0959467449
C  C102  1  0.35070000  0.03710000  0.37170000  1.0 -0.0903452332
C  C103  1  0.24300000  0.36870000  0.97030000  1.0 -0.107403607
C  C104  1  0.22900000  0.98320000  0.86680000  1.0 -0.0436221481
C  C105  1  0.23850000  0.45010000  0.93670000  1.0 0.1003658391
C  C106  1  0.31270000  0.00240000  0.89810000  1.0 -0.0903452332
C  C107  1  0.22920000  0.90880000  0.82660000  1.0 0.590416684
C  C108  1  0.24400000  0.20910000  0.97020000  1.0 -0.0843029253
C  C109  1  0.23550000  0.13020000  0.93570000  1.0 0.0947632344
C  C110  1  0.23130000  0.59550000  0.86700000  1.0 -0.0257291332
C  C111  1  0.15310000  0.47230000  0.90760000  1.0 -0.1852234833
C  C112  1  0.31630000  0.07600000  0.93250000  1.0 -0.1592234965
C  C113  1  0.31980000  0.50280000  0.93150000  1.0 -0.1592234965
C  C114  1  0.15220000  0.54660000  0.87380000  1.0 -0.0903452332
C  C115  1  0.23040000  0.67120000  0.82540000  1.0 0.590416684
C  C116  1  0.23890000  0.29090000  0.93980000  1.0 0.2572066701
C  C117  1  0.15550000  0.11030000  0.90520000  1.0 -0.1592234965
C  C118  1  0.31630000  0.57540000  0.89720000  1.0 -0.0959467449
C  C119  1  0.14930000  0.03710000  0.87170000  1.0 -0.0903452332
C  C120  1  0.25700000  0.36870000  0.02970000  1.0 -0.107403607
C  C121  1  0.27100000  0.98320000  0.13320000  1.0 -0.0436221481
C  C122  1  0.26150000  0.45010000  0.06330000  1.0 0.1003658391
C  C123  1  0.18730000  0.00240000  0.10190000  1.0 -0.0903452332
C  C124  1  0.27080000  0.90880000  0.17340000  1.0 0.590416684
C  C125  1  0.25600000  0.20910000  0.02980000  1.0 -0.0843029253
C  C126  1  0.26450000  0.13020000  0.06430000  1.0 0.0947632344
C  C127  1  0.26870000  0.59550000  0.13300000  1.0 -0.0257291332
C  C128  1  0.34690000  0.47230000  0.09240000  1.0 -0.1852234833
C  C129  1  0.18370000  0.07600000  0.06750000  1.0 -0.1592234965
C  C130  1  0.18020000  0.50280000  0.06850000  1.0 -0.1592234965
C  C131  1  0.34780000  0.54660000  0.12620000  1.0 -0.0903452332
C  C132  1  0.26960000  0.67120000  0.17460000  1.0 0.590416684
C  C133  1  0.26110000  0.29090000  0.06020000  1.0 0.2572066701
C  C134  1  0.34450000  0.11030000  0.09480000  1.0 -0.1592234965
C  C135  1  0.18370000  0.57540000  0.10280000  1.0 -0.0959467449
C  C136  1  0.35070000  0.03710000  0.12830000  1.0 -0.0903452332
O  O1  1  0.69190000  0.11990000  0.18890000  1.0 -0.5334873655
O  O2  1  0.85130000  0.30310000  0.19010000  1.0 -0.5426816054
O  O3  1  0.76770000  0.71170000  0.11650000  1.0 -0.3540077665
O  O4  1  0.85240000  0.11920000  0.18970000  1.0 -0.5503249474
O  O5  1  0.68700000  0.30060000  0.18960000  1.0 -0.5643040247
O  O6  1  0.80810000  0.11990000  0.81110000  1.0 -0.5334873655
O  O7  1  0.64870000  0.30310000  0.80990000  1.0 -0.5426816054
O  O8  1  0.73230000  0.71170000  0.88350000  1.0 -0.3540077665
O  O9  1  0.64760000  0.11920000  0.81030000  1.0 -0.5503249474
O  O10  1  0.81300000  0.30060000  0.81040000  1.0 -0.5643040247
O  O11  1  0.69190000  0.11990000  0.31110000  1.0 -0.5334873655
O  O12  1  0.85130000  0.30310000  0.30990000  1.0 -0.5426816054
O  O13  1  0.76770000  0.71170000  0.38350000  1.0 -0.3540077665
O  O14  1  0.85240000  0.11920000  0.31030000  1.0 -0.5503249474
O  O15  1  0.68700000  0.30060000  0.31040000  1.0 -0.5643040247
O  O16  1  0.80810000  0.11990000  0.68890000  1.0 -0.5334873655
O  O17  1  0.64870000  0.30310000  0.69010000  1.0 -0.5426816054
O  O18  1  0.73230000  0.71170000  0.61650000  1.0 -0.3540077665
O  O19  1  0.64760000  0.11920000  0.68970000  1.0 -0.5503249474
O  O20  1  0.81300000  0.30060000  0.68960000  1.0 -0.5643040247
O  O21  1  0.30810000  0.88010000  0.68890000  1.0 -0.5334873655
O  O22  1  0.14870000  0.69690000  0.69010000  1.0 -0.5426816054
O  O23  1  0.23230000  0.28830000  0.61650000  1.0 -0.3540077665
O  O24  1  0.14760000  0.88080000  0.68970000  1.0 -0.5503249474
O  O25  1  0.31300000  0.69940000  0.68960000  1.0 -0.5643040247
O  O26  1  0.19190000  0.88010000  0.31110000  1.0 -0.5334873655
O  O27  1  0.35130000  0.69690000  0.30990000  1.0 -0.5426816054
O  O28  1  0.26770000  0.28830000  0.38350000  1.0 -0.3540077665
O  O29  1  0.35240000  0.88080000  0.31030000  1.0 -0.5503249474
O  O30  1  0.18700000  0.69940000  0.31040000  1.0 -0.5643040247
O  O31  1  0.30810000  0.88010000  0.81110000  1.0 -0.5334873655
O  O32  1  0.14870000  0.69690000  0.80990000  1.0 -0.5426816054
O  O33  1  0.23230000  0.28830000  0.88350000  1.0 -0.3540077665
O  O34  1  0.14760000  0.88080000  0.81030000  1.0 -0.5503249474
O  O35  1  0.31300000  0.69940000  0.81040000  1.0 -0.5643040247
O  O36  1  0.19190000  0.88010000  0.18890000  1.0 -0.5334873655
O  O37  1  0.35130000  0.69690000  0.19010000  1.0 -0.5426816054
O  O38  1  0.26770000  0.28830000  0.11650000  1.0 -0.3540077665
O  O39  1  0.35240000  0.88080000  0.18970000  1.0 -0.5503249474
O  O40  1  0.18700000  0.69940000  0.18960000  1.0 -0.5643040247
