# DDEC6 charges by PACMAN v1.1 (https://github.com/mtap-research/PACMAN-charge/)
data_XOBCAV_FSR_pacman
_symmetry_space_group_name_H-M   'P 1'
_cell_length_a   11.86600000
_cell_length_b   12.25900000
_cell_length_c   14.24800000
_cell_angle_alpha   98.34100000
_cell_angle_beta   93.60400000
_cell_angle_gamma   117.01800000
_symmetry_Int_Tables_number   1
_chemical_formula_structural   NiH18C24(N2O7)2
_chemical_formula_sum   'Ni2 H36 C48 N8 O28'
_cell_volume   1807.26785891
_cell_formula_units_Z   2
loop_
 _symmetry_equiv_pos_site_id
 _symmetry_equiv_pos_as_xyz
  1  'x, y, z'
loop_
 _atom_site_type_symbol
 _atom_site_label
 _atom_site_symmetry_multiplicity
 _atom_site_fract_x
 _atom_site_fract_y
 _atom_site_fract_z
 _atom_site_occupancy
 _atom_site_charge
Ni  Ni1  1  0.00000000  0.00000000  0.00000000  1.0 0.8472021954
Ni  Ni2  1  0.00000000  0.00000000  0.50000000  1.0 0.792827441
H  H1  1  0.91790000  0.87912000  0.12021000  1.0 0.3316531913
H  H2  1  0.79380000  0.82780000  0.07428000  1.0 0.3390846388
H  H3  1  0.12874000  0.14106000  0.39388000  1.0 0.3498608085
H  H4  1  0.09207000  0.02077000  0.34654000  1.0 0.3498608085
H  H5  1  0.93948000  0.21254000  0.98682000  1.0 0.0687853905
H  H6  1  0.91435000  0.36682000  0.07705000  1.0 0.0687853905
H  H7  1  0.01157000  0.26675000  0.31136000  1.0 0.1435781108
H  H8  1  0.02773000  0.11098000  0.21349000  1.0 0.1006702271
H  H9  1  0.98516000  0.72016000  0.28695000  1.0 0.11306613
H  H10  1  0.84319000  0.48658000  0.46870000  1.0 0.1307488965
H  H11  1  0.86501000  0.33550000  0.36855000  1.0 0.1198169911
H  H12  1  0.82303000  0.11593000  0.51162000  1.0 0.1006702271
H  H13  1  0.64498000  0.10738000  0.43226000  1.0 0.1307488965
H  H14  1  0.65413000  0.86602000  0.21478000  1.0 0.11306613
H  H15  1  0.83216000  0.88156000  0.30003000  1.0 0.11306613
H  H16  1  0.37209000  0.05099000  0.09950000  1.0 0.1006702271
H  H17  1  0.21458000  0.88770000  0.31373000  1.0 0.11306613
H  H18  1  0.40156000  0.88966000  0.36728000  1.0 0.1198169911
H  H19  1  0.08210000  0.12088000  0.87979000  1.0 0.3316531913
H  H20  1  0.20620000  0.17220000  0.92572000  1.0 0.3390846388
H  H21  1  0.87126000  0.85894000  0.60612000  1.0 0.3498608085
H  H22  1  0.90793000  0.97923000  0.65346000  1.0 0.3498608085
H  H23  1  0.06052000  0.78746000  0.01318000  1.0 0.0687853905
H  H24  1  0.08565000  0.63318000  0.92295000  1.0 0.0687853905
H  H25  1  0.98843000  0.73325000  0.68864000  1.0 0.1435781108
H  H26  1  0.97227000  0.88902000  0.78651000  1.0 0.1006702271
H  H27  1  0.01484000  0.27984000  0.71305000  1.0 0.11306613
H  H28  1  0.15681000  0.51342000  0.53130000  1.0 0.1307488965
H  H29  1  0.13499000  0.66450000  0.63145000  1.0 0.1198169911
H  H30  1  0.17697000  0.88407000  0.48838000  1.0 0.1006702271
H  H31  1  0.35502000  0.89262000  0.56774000  1.0 0.1307488965
H  H32  1  0.34587000  0.13398000  0.78522000  1.0 0.11306613
H  H33  1  0.16784000  0.11844000  0.69997000  1.0 0.11306613
H  H34  1  0.62791000  0.94901000  0.90050000  1.0 0.1006702271
H  H35  1  0.78542000  0.11230000  0.68627000  1.0 0.11306613
H  H36  1  0.59844000  0.11034000  0.63272000  1.0 0.1198169911
C  C1  1  0.95310000  0.22270000  0.05320000  1.0 0.0421854952
C  C2  1  0.93900000  0.31690000  0.10690000  1.0 -0.282546894
C  C3  1  0.96190000  0.33710000  0.20680000  1.0 0.0770000777
C  C4  1  0.99550000  0.25750000  0.24520000  1.0 -0.1849302514
C  C5  1  0.00550000  0.16380000  0.18550000  1.0 0.0770000777
C  C6  1  0.94670000  0.43630000  0.26890000  1.0 0.0178681226
C  C7  1  0.98100000  0.55370000  0.24860000  1.0 -0.1692543589
C  C8  1  0.96400000  0.64430000  0.30540000  1.0 -0.1692543589
C  C9  1  0.91510000  0.62160000  0.39050000  1.0 -0.0048861108
C  C10  1  0.87810000  0.50420000  0.41270000  1.0 -0.0955883426
C  C11  1  0.89240000  0.41370000  0.35270000  1.0 -0.1565862162
C  C12  1  0.90790000  0.72480000  0.45670000  1.0 0.5600727337
C  C13  1  0.78820000  0.06440000  0.45150000  1.0 0.0872811848
C  C14  1  0.68100000  0.05980000  0.40410000  1.0 -0.2060670568
C  C15  1  0.62700000  0.98460000  0.31460000  1.0 0.0872811848
C  C16  1  0.68630000  0.91700000  0.27530000  1.0 -0.227923551
C  C17  1  0.79330000  0.92690000  0.32730000  1.0 0.0872811848
C  C18  1  0.50500000  0.97480000  0.26890000  1.0 0.0072536763
C  C19  1  0.49030000  0.02120000  0.18730000  1.0 -0.1692543589
C  C20  1  0.37770000  0.01920000  0.15400000  1.0 -0.1499693258
C  C21  1  0.27410000  0.97050000  0.20130000  1.0 -0.0172493987
C  C22  1  0.28450000  0.92190000  0.28140000  1.0 -0.1436360566
C  C23  1  0.39740000  0.92370000  0.31380000  1.0 -0.1499693258
C  C24  1  0.15100000  0.97110000  0.16763000  1.0 0.5600727337
C  C25  1  0.04690000  0.77730000  0.94680000  1.0 0.0421854952
C  C26  1  0.06100000  0.68310000  0.89310000  1.0 -0.282546894
C  C27  1  0.03810000  0.66290000  0.79320000  1.0 0.0770000777
C  C28  1  0.00450000  0.74250000  0.75480000  1.0 -0.1855661435
C  C29  1  0.99450000  0.83620000  0.81450000  1.0 0.0770000777
C  C30  1  0.05330000  0.56370000  0.73110000  1.0 0.0178681226
C  C31  1  0.01900000  0.44630000  0.75140000  1.0 -0.1692543589
C  C32  1  0.03600000  0.35570000  0.69460000  1.0 -0.1692543589
C  C33  1  0.08490000  0.37840000  0.60950000  1.0 -0.0048861108
C  C34  1  0.12190000  0.49580000  0.58730000  1.0 -0.0955883426
C  C35  1  0.10760000  0.58630000  0.64730000  1.0 -0.1565862162
C  C36  1  0.09210000  0.27520000  0.54330000  1.0 0.5600727337
C  C37  1  0.21180000  0.93560000  0.54850000  1.0 0.0872811848
C  C38  1  0.31900000  0.94020000  0.59590000  1.0 -0.2060670568
C  C39  1  0.37300000  0.01540000  0.68540000  1.0 0.0872811848
C  C40  1  0.31370000  0.08300000  0.72470000  1.0 -0.227923551
C  C41  1  0.20670000  0.07310000  0.67270000  1.0 0.0872811848
C  C42  1  0.49500000  0.02520000  0.73110000  1.0 0.0072536763
C  C43  1  0.50970000  0.97880000  0.81270000  1.0 -0.1692543589
C  C44  1  0.62230000  0.98080000  0.84600000  1.0 -0.1499693258
C  C45  1  0.72590000  0.02950000  0.79870000  1.0 -0.0172493987
C  C46  1  0.71550000  0.07810000  0.71860000  1.0 -0.1436360566
C  C47  1  0.60260000  0.07630000  0.68620000  1.0 -0.1499693258
C  C48  1  0.84900000  0.02890000  0.83237000  1.0 0.5600727337
N  N1  1  0.98520000  0.14480000  0.09002000  1.0 -0.2671316428
N  N2  1  0.04420000  0.59060000  0.16500000  1.0 0.4068340497
N  N3  1  0.84490000  0.99810000  0.41517000  1.0 -0.227923551
N  N4  1  0.59900000  0.07770000  0.13510000  1.0 0.4307823615
N  N5  1  0.01480000  0.85520000  0.90998000  1.0 -0.2671316428
N  N6  1  0.95580000  0.40940000  0.83500000  1.0 0.4068340497
N  N7  1  0.15510000  0.00190000  0.58483000  1.0 -0.227923551
N  N8  1  0.40100000  0.92230000  0.86490000  1.0 0.4307823615
O  O1  1  0.94900000  0.82674000  0.42739000  1.0 -0.5667447312
O  O2  1  0.87210000  0.86950000  0.06831000  1.0 -0.6849740012
O  O3  1  0.12087000  0.07030000  0.40066000  1.0 -0.6700723035
O  O4  1  0.86680000  0.70530000  0.53437000  1.0 -0.5443903966
O  O5  1  0.98200000  0.61400000  0.10260000  1.0 -0.0871930433
O  O6  1  0.12600000  0.59300000  0.14500000  1.0 0.2639394837
O  O7  1  0.14968000  0.01671000  0.09383000  1.0 -0.5667447312
O  O8  1  0.05986000  0.92590000  0.21454000  1.0 -0.580169843
O  O9  1  0.67370000  0.04510000  0.12330000  1.0 0.0421854952
O  O10  1  0.62160000  0.18960000  0.11820000  1.0 -0.2403260259
O  O11  1  0.04800000  0.65300000  0.12700000  1.0 0.226298696
O  O12  1  0.15800000  0.58700000  0.16900000  1.0 -0.0955883426
O  O13  1  0.69540000  0.13060000  0.17860000  1.0 0.0770000777
O  O14  1  0.57600000  0.06530000  0.04990000  1.0 -0.1193834221
O  O15  1  0.05100000  0.17326000  0.57261000  1.0 -0.5667447312
O  O16  1  0.12790000  0.13050000  0.93169000  1.0 -0.6849740012
O  O17  1  0.87913000  0.92970000  0.59934000  1.0 -0.6700723035
O  O18  1  0.13320000  0.29470000  0.46563000  1.0 -0.5443903966
O  O19  1  0.01800000  0.38600000  0.89740000  1.0 -0.0871930433
O  O20  1  0.87400000  0.40700000  0.85500000  1.0 0.2653571205
O  O21  1  0.85032000  0.98329000  0.90617000  1.0 -0.5667447312
O  O22  1  0.94014000  0.07410000  0.78546000  1.0 -0.580169843
O  O23  1  0.32630000  0.95490000  0.87670000  1.0 0.0421854952
O  O24  1  0.37840000  0.81040000  0.88180000  1.0 -0.2403260259
O  O25  1  0.95200000  0.34700000  0.87300000  1.0 0.226298696
O  O26  1  0.84200000  0.41300000  0.83100000  1.0 -0.0955883426
O  O27  1  0.30460000  0.86940000  0.82140000  1.0 0.0770000777
O  O28  1  0.42400000  0.93470000  0.95010000  1.0 -0.1193834221
