# DDEC6 charges by PACMAN v1.1 (https://github.com/mtap-research/PACMAN-charge/)
data_XOBDUO_ASR_pacman
_symmetry_space_group_name_H-M   'P 1'
_cell_length_a   15.05350000
_cell_length_b   21.85640000
_cell_length_c   3.69390000
_cell_angle_alpha   90.00000000
_cell_angle_beta   90.00000000
_cell_angle_gamma   90.00000000
_symmetry_Int_Tables_number   1
_chemical_formula_structural   Ag2H16C20N4Cl
_chemical_formula_sum   'Ag4 H32 C40 N8 Cl2'
_cell_volume   1215.34968094
_cell_formula_units_Z   2
loop_
 _symmetry_equiv_pos_site_id
 _symmetry_equiv_pos_as_xyz
  1  'x, y, z'
loop_
 _atom_site_type_symbol
 _atom_site_label
 _atom_site_symmetry_multiplicity
 _atom_site_fract_x
 _atom_site_fract_y
 _atom_site_fract_z
 _atom_site_occupancy
 _atom_site_charge
Ag  Ag1  1  0.64571000  0.49936000  0.52813000  1.0 0.2760444798
Ag  Ag2  1  0.35429000  0.50064000  0.52813000  1.0 0.2760444798
Ag  Ag3  1  0.85429000  0.99936000  0.47187000  1.0 0.2760444798
Ag  Ag4  1  0.14571000  0.00064000  0.47187000  1.0 0.2760444798
H  H1  1  0.36310000  0.18081000  0.38384000  1.0 0.097532633
H  H2  1  0.30973000  0.07401000  0.37637000  1.0 0.0671118267
H  H3  1  0.05986000  0.12351000  0.75809000  1.0 0.0794401435
H  H4  1  0.10113000  0.23387000  0.77423000  1.0 0.0933225073
H  H5  1  0.86291000  0.68078000  0.38270000  1.0 0.097532633
H  H6  1  0.80949000  0.57391000  0.37715000  1.0 0.0671118267
H  H7  1  0.55986000  0.62378000  0.75949000  1.0 0.0794401435
H  H8  1  0.60108000  0.73410000  0.77299000  1.0 0.0933225073
H  H9  1  0.63690000  0.81919000  0.38384000  1.0 0.097532633
H  H10  1  0.69027000  0.92599000  0.37637000  1.0 0.0671118267
H  H11  1  0.94014000  0.87649000  0.75809000  1.0 0.0794401435
H  H12  1  0.89887000  0.76613000  0.77423000  1.0 0.0933225073
H  H13  1  0.13709000  0.31922000  0.38270000  1.0 0.097532633
H  H14  1  0.19051000  0.42609000  0.37715000  1.0 0.0671118267
H  H15  1  0.44014000  0.37622000  0.75949000  1.0 0.0794401435
H  H16  1  0.39892000  0.26590000  0.77299000  1.0 0.0933225073
H  H17  1  0.63709000  0.18078000  0.61730000  1.0 0.097532633
H  H18  1  0.69051000  0.07391000  0.62285000  1.0 0.0671118267
H  H19  1  0.94014000  0.12378000  0.24051000  1.0 0.0794401435
H  H20  1  0.89892000  0.23410000  0.22701000  1.0 0.0933225073
H  H21  1  0.13690000  0.68081000  0.61616000  1.0 0.097532633
H  H22  1  0.19027000  0.57401000  0.62363000  1.0 0.0671118267
H  H23  1  0.44014000  0.62351000  0.24191000  1.0 0.0794401435
H  H24  1  0.39887000  0.73387000  0.22577000  1.0 0.0933225073
H  H25  1  0.36291000  0.81922000  0.61730000  1.0 0.097532633
H  H26  1  0.30949000  0.92609000  0.62285000  1.0 0.0671118267
H  H27  1  0.05986000  0.87622000  0.24051000  1.0 0.0794401435
H  H28  1  0.10108000  0.76590000  0.22701000  1.0 0.0933225073
H  H29  1  0.86310000  0.31919000  0.61616000  1.0 0.097532633
H  H30  1  0.80973000  0.42599000  0.62363000  1.0 0.0671118267
H  H31  1  0.55986000  0.37649000  0.24191000  1.0 0.0794401435
H  H32  1  0.60113000  0.26613000  0.22577000  1.0 0.0933225073
C  C1  1  0.29474000  0.17092000  0.47585000  1.0 -0.1733081664
C  C2  1  0.26552000  0.11122000  0.46670000  1.0 0.0601690293
C  C3  1  0.23621000  0.21821000  0.57491000  1.0 0.0794401435
C  C4  1  0.12605000  0.13889000  0.66892000  1.0 0.0794401435
C  C5  1  0.14977000  0.19995000  0.67295000  1.0 -0.1792750887
C  C6  1  0.79458000  0.67089000  0.47519000  1.0 -0.1733081664
C  C7  1  0.76541000  0.61113000  0.46848000  1.0 0.0601690293
C  C8  1  0.73622000  0.71826000  0.57470000  1.0 0.0794401435
C  C9  1  0.62611000  0.63907000  0.67074000  1.0 0.0794401435
C  C10  1  0.64970000  0.70014000  0.67210000  1.0 -0.1792750887
C  C11  1  0.70526000  0.82908000  0.47585000  1.0 -0.1733081664
C  C12  1  0.73448000  0.88878000  0.46670000  1.0 0.0601690293
C  C13  1  0.76379000  0.78179000  0.57491000  1.0 0.0794401435
C  C14  1  0.87395000  0.86111000  0.66892000  1.0 0.0794401435
C  C15  1  0.85023000  0.80005000  0.67295000  1.0 -0.1792750887
C  C16  1  0.20542000  0.32911000  0.47519000  1.0 -0.1733081664
C  C17  1  0.23459000  0.38887000  0.46848000  1.0 0.0601690293
C  C18  1  0.26378000  0.28174000  0.57470000  1.0 0.0794401435
C  C19  1  0.37389000  0.36093000  0.67074000  1.0 0.0794401435
C  C20  1  0.35030000  0.29986000  0.67210000  1.0 -0.1792750887
C  C21  1  0.70542000  0.17089000  0.52481000  1.0 -0.1733081664
C  C22  1  0.73459000  0.11113000  0.53152000  1.0 0.0601690293
C  C23  1  0.76378000  0.21826000  0.42530000  1.0 0.0794401435
C  C24  1  0.87389000  0.13907000  0.32926000  1.0 0.0794401435
C  C25  1  0.85030000  0.20014000  0.32790000  1.0 -0.1792750887
C  C26  1  0.20526000  0.67092000  0.52415000  1.0 -0.1733081664
C  C27  1  0.23448000  0.61122000  0.53330000  1.0 0.0601690293
C  C28  1  0.26379000  0.71821000  0.42509000  1.0 0.0794401435
C  C29  1  0.37395000  0.63889000  0.33108000  1.0 0.0794401435
C  C30  1  0.35023000  0.69995000  0.32705000  1.0 -0.1792750887
C  C31  1  0.29458000  0.82911000  0.52481000  1.0 -0.1733081664
C  C32  1  0.26541000  0.88887000  0.53152000  1.0 0.0601690293
C  C33  1  0.23622000  0.78174000  0.42530000  1.0 0.0794401435
C  C34  1  0.12611000  0.86093000  0.32926000  1.0 0.0794401435
C  C35  1  0.14970000  0.79986000  0.32790000  1.0 -0.1792750887
C  C36  1  0.79474000  0.32908000  0.52415000  1.0 -0.1733081664
C  C37  1  0.76552000  0.38878000  0.53330000  1.0 0.0601690293
C  C38  1  0.73621000  0.28179000  0.42509000  1.0 0.0794401435
C  C39  1  0.62605000  0.36111000  0.33108000  1.0 0.0794401435
C  C40  1  0.64977000  0.30005000  0.32705000  1.0 -0.1792750887
N  N1  1  0.18210000  0.09389000  0.56005000  1.0 -0.2012760124
N  N2  1  0.68229000  0.59384000  0.56665000  1.0 -0.2012760124
N  N3  1  0.81790000  0.90611000  0.56005000  1.0 -0.2012760124
N  N4  1  0.31771000  0.40616000  0.56665000  1.0 -0.2012760124
N  N5  1  0.81771000  0.09384000  0.43335000  1.0 -0.2012760124
N  N6  1  0.31790000  0.59389000  0.43995000  1.0 -0.2012760124
N  N7  1  0.18229000  0.90616000  0.43335000  1.0 -0.2012760124
N  N8  1  0.68210000  0.40611000  0.43995000  1.0 -0.2012760124
Cl  Cl1  1  0.00000000  0.00000000  0.00201000  1.0 -0.5624775968
Cl  Cl2  1  0.50000000  0.50000000  0.99799000  1.0 -0.5624775968
