# DDEC6 charges by PACMAN v1.1 (https://github.com/mtap-research/PACMAN-charge/)
data_XOBGUT_FSR_pacman
_symmetry_space_group_name_H-M   'P 1'
_cell_length_a   11.07400000
_cell_length_b   13.76200000
_cell_length_c   22.21500000
_cell_angle_alpha   91.33400000
_cell_angle_beta   93.26300000
_cell_angle_gamma   113.53700000
_symmetry_Int_Tables_number   1
_chemical_formula_structural   Eu3H30C40N5O37
_chemical_formula_sum   'Eu6 H60 C80 N10 O74'
_cell_volume   3094.95312078
_cell_formula_units_Z   2
loop_
 _symmetry_equiv_pos_site_id
 _symmetry_equiv_pos_as_xyz
  1  'x, y, z'
loop_
 _atom_site_type_symbol
 _atom_site_label
 _atom_site_symmetry_multiplicity
 _atom_site_fract_x
 _atom_site_fract_y
 _atom_site_fract_z
 _atom_site_occupancy
 _atom_site_charge
Eu  Eu1  1  0.74540000  0.79344000  0.72746000  1.0 1.9928131215
Eu  Eu2  1  0.21236000  0.05048000  0.83628000  1.0 2.0488300435
Eu  Eu3  1  0.50696000  0.48331000  0.73910000  1.0 2.1080143564
Eu  Eu4  1  0.25460000  0.20656000  0.27254000  1.0 1.9928131215
Eu  Eu5  1  0.78764000  0.94952000  0.16372000  1.0 2.0488300435
Eu  Eu6  1  0.49304000  0.51669000  0.26090000  1.0 2.1080143564
H  H1  1  0.96420000  0.63320000  0.67820000  1.0 0.1415283345
H  H2  1  0.28660000  0.57540000  0.65920000  1.0 0.1415283345
H  H3  1  0.31290000  0.82850000  0.76400000  1.0 0.1450749748
H  H4  1  0.68500000  0.28720000  0.88630000  1.0 0.1326764586
H  H5  1  0.99700000  0.21670000  0.86910000  1.0 0.1415283345
H  H6  1  0.64860000  0.02120000  0.78240000  1.0 0.1415283345
H  H7  1  0.69320000  0.58510000  0.06940000  1.0 0.1415283345
H  H8  1  0.64220000  0.50850000  0.89190000  1.0 0.1326764586
H  H9  1  0.75280000  0.80940000  0.95020000  1.0 0.1326764586
H  H10  1  0.23610000  0.60140000  0.86820000  1.0 0.1586582028
H  H11  1  0.85730000  0.55790000  0.83610000  1.0 0.1326764586
H  H12  1  0.98820000  0.37260000  0.73950000  1.0 0.1236660592
H  H13  1  0.58880000  0.39300000  0.42720000  1.0 0.1415283345
H  H14  1  0.66960000  0.42090000  0.60900000  1.0 0.1326764586
H  H15  1  0.71670000  0.67840000  0.51720000  1.0 0.1326764586
H  H16  1  0.78290000  0.31380000  0.71040000  1.0 0.3513417058
H  H17  1  0.37800000  0.31630000  0.82770000  1.0 0.3782570673
H  H18  1  0.51360000  0.36080000  0.83150000  1.0 0.358845491
H  H19  1  0.39530000  0.25610000  0.70110000  1.0 0.358845491
H  H20  1  0.52870000  0.28410000  0.71130000  1.0 0.358845491
H  H21  1  0.58230000  0.86850000  0.66210000  1.0 0.3513417058
H  H22  1  0.63840000  0.82780000  0.62030000  1.0 0.358845491
H  H23  1  0.92410000  0.97780000  0.68210000  1.0 0.3513417058
H  H24  1  0.87530000  0.90730000  0.63300000  1.0 0.3513417058
H  H25  1  0.19670000  0.11010000  0.71640000  1.0 0.3782570673
H  H26  1  0.22920000  0.20230000  0.75090000  1.0 0.369617682
H  H27  1  0.35410000  0.91530000  0.88950000  1.0 0.3782570673
H  H28  1  0.30180000  0.95360000  0.93420000  1.0 0.369617682
H  H29  1  0.95630000  0.87420000  0.87550000  1.0 0.369617682
H  H30  1  0.02810000  0.92790000  0.92720000  1.0 0.3513417058
H  H31  1  0.03580000  0.36680000  0.32180000  1.0 0.1415283345
H  H32  1  0.71340000  0.42460000  0.34080000  1.0 0.1415283345
H  H33  1  0.68710000  0.17150000  0.23600000  1.0 0.1450749748
H  H34  1  0.31500000  0.71280000  0.11370000  1.0 0.1326764586
H  H35  1  0.00300000  0.78330000  0.13090000  1.0 0.1415283345
H  H36  1  0.35140000  0.97880000  0.21760000  1.0 0.1415283345
H  H37  1  0.30680000  0.41490000  0.93060000  1.0 0.1415283345
H  H38  1  0.35780000  0.49150000  0.10810000  1.0 0.1326764586
H  H39  1  0.24720000  0.19060000  0.04980000  1.0 0.1326764586
H  H40  1  0.76390000  0.39860000  0.13180000  1.0 0.1586582028
H  H41  1  0.14270000  0.44210000  0.16390000  1.0 0.1326764586
H  H42  1  0.01180000  0.62740000  0.26050000  1.0 0.1236660592
H  H43  1  0.41120000  0.60700000  0.57280000  1.0 0.1415283345
H  H44  1  0.33040000  0.57910000  0.39100000  1.0 0.1326764586
H  H45  1  0.28330000  0.32160000  0.48280000  1.0 0.1326764586
H  H46  1  0.21710000  0.68620000  0.28960000  1.0 0.3513417058
H  H47  1  0.62200000  0.68370000  0.17230000  1.0 0.3782570673
H  H48  1  0.48640000  0.63920000  0.16850000  1.0 0.358845491
H  H49  1  0.60470000  0.74390000  0.29890000  1.0 0.358845491
H  H50  1  0.47130000  0.71590000  0.28870000  1.0 0.358845491
H  H51  1  0.41770000  0.13150000  0.33790000  1.0 0.3513417058
H  H52  1  0.36160000  0.17220000  0.37970000  1.0 0.358845491
H  H53  1  0.07590000  0.02220000  0.31790000  1.0 0.3513417058
H  H54  1  0.12470000  0.09270000  0.36700000  1.0 0.3513417058
H  H55  1  0.80330000  0.88990000  0.28360000  1.0 0.3782570673
H  H56  1  0.77080000  0.79770000  0.24910000  1.0 0.369617682
H  H57  1  0.64590000  0.08470000  0.11050000  1.0 0.3782570673
H  H58  1  0.69820000  0.04640000  0.06580000  1.0 0.369617682
H  H59  1  0.04370000  0.12580000  0.12450000  1.0 0.369617682
H  H60  1  0.97190000  0.07210000  0.07280000  1.0 0.3513417058
C  C1  1  0.06330000  0.80950000  0.74770000  1.0 0.6596343629
C  C2  1  0.12970000  0.74390000  0.72130000  1.0 -0.0107480258
C  C3  1  0.05510000  0.65550000  0.68490000  1.0 -0.1465304084
C  C4  1  0.12200000  0.60130000  0.65890000  1.0 0.0487669483
C  C5  1  0.24970000  0.62010000  0.67440000  1.0 -0.1393225111
C  C6  1  0.32530000  0.70620000  0.71290000  1.0 0.0099570584
C  C7  1  0.26480000  0.77060000  0.73770000  1.0 -0.0977782719
C  C8  1  0.46900000  0.72830000  0.73010000  1.0 0.5806428902
C  C9  1  0.49640000  0.11770000  0.82330000  1.0 0.555913996
C  C10  1  0.63920000  0.14760000  0.83210000  1.0 -0.0222345777
C  C11  1  0.72070000  0.24250000  0.87000000  1.0 -0.1393225111
C  C12  1  0.85200000  0.26250000  0.88030000  1.0 0.0561469831
C  C13  1  0.90840000  0.20120000  0.85860000  1.0 -0.1393225111
C  C14  1  0.83350000  0.11280000  0.81990000  1.0 0.0006658101
C  C15  1  0.69800000  0.08170000  0.80660000  1.0 -0.0977782719
C  C16  1  0.90100000  0.04120000  0.79320000  1.0 0.6390354745
C  C17  1  0.75600000  0.79280000  0.06640000  1.0 0.5806428902
C  C18  1  0.72520000  0.70900000  0.01760000  1.0 0.0006658101
C  C19  1  0.69210000  0.60540000  0.02980000  1.0 -0.1184934067
C  C20  1  0.65660000  0.53020000  0.98160000  1.0 0.0375620835
C  C21  1  0.66210000  0.56000000  0.92330000  1.0 -0.1292046097
C  C22  1  0.69670000  0.66410000  0.91060000  1.0 -0.0107480258
C  C23  1  0.72860000  0.73830000  0.95810000  1.0 -0.0977782719
C  C24  1  0.71200000  0.69900000  0.84800000  1.0 0.5980265252
C  C25  1  0.25900000  0.48700000  0.77820000  1.0 0.5487682931
C  C26  1  0.15500000  0.57000000  0.84620000  1.0 -0.1184934067
C  C27  1  0.13600000  0.49800000  0.79980000  1.0 0.0278437808
C  C28  1  0.05800000  0.59300000  0.85910000  1.0 0.0487669483
C  C29  1  0.92500000  0.53900000  0.82600000  1.0 -0.1184934067
C  C30  1  0.90100000  0.46500000  0.78340000  1.0 -0.0342250429
C  C31  1  0.00200000  0.42900000  0.76660000  1.0 -0.2220670692
C  C32  1  0.75900000  0.40800000  0.75380000  1.0 0.5920897536
C  C33  1  0.64200000  0.60100000  0.40550000  1.0 0.5920897536
C  C34  1  0.65640000  0.54840000  0.46430000  1.0 -0.0039620609
C  C35  1  0.61800000  0.43480000  0.46290000  1.0 -0.1292046097
C  C36  1  0.62600000  0.39370000  0.51540000  1.0 0.0681569018
C  C37  1  0.66380000  0.45300000  0.57330000  1.0 -0.1292046097
C  C38  1  0.69120000  0.60530000  0.51790000  1.0 -0.0830799378
C  C39  1  0.71500000  0.61900000  0.63130000  1.0 0.6132860296
C  C40  1  0.69120000  0.56230000  0.57320000  1.0 -0.0439046956
C  C41  1  0.93670000  0.19050000  0.25230000  1.0 0.6596343629
C  C42  1  0.87030000  0.25610000  0.27870000  1.0 -0.0107480258
C  C43  1  0.94490000  0.34450000  0.31510000  1.0 -0.1465304084
C  C44  1  0.87800000  0.39870000  0.34110000  1.0 0.0487669483
C  C45  1  0.75030000  0.37990000  0.32560000  1.0 -0.1393225111
C  C46  1  0.67470000  0.29380000  0.28710000  1.0 0.0099570584
C  C47  1  0.73520000  0.22940000  0.26230000  1.0 -0.0977782719
C  C48  1  0.53100000  0.27170000  0.26990000  1.0 0.5806428902
C  C49  1  0.50360000  0.88230000  0.17670000  1.0 0.555913996
C  C50  1  0.36080000  0.85240000  0.16790000  1.0 -0.0222345777
C  C51  1  0.27930000  0.75750000  0.13000000  1.0 -0.1465304084
C  C52  1  0.14800000  0.73750000  0.11970000  1.0 0.0561469831
C  C53  1  0.09160000  0.79880000  0.14140000  1.0 -0.1393225111
C  C54  1  0.16650000  0.88720000  0.18010000  1.0 0.0006658101
C  C55  1  0.30200000  0.91830000  0.19340000  1.0 -0.0977782719
C  C56  1  0.09900000  0.95880000  0.20680000  1.0 0.6390354745
C  C57  1  0.24400000  0.20720000  0.93360000  1.0 0.5806428902
C  C58  1  0.27480000  0.29100000  0.98240000  1.0 0.0006658101
C  C59  1  0.30790000  0.39460000  0.97020000  1.0 -0.1184934067
C  C60  1  0.34340000  0.46980000  0.01840000  1.0 0.0375620835
C  C61  1  0.33790000  0.44000000  0.07670000  1.0 -0.1292046097
C  C62  1  0.30330000  0.33590000  0.08940000  1.0 -0.0107480258
C  C63  1  0.27140000  0.26170000  0.04190000  1.0 -0.0977782719
C  C64  1  0.28800000  0.30100000  0.15200000  1.0 0.5980265252
C  C65  1  0.74100000  0.51300000  0.22180000  1.0 0.5487682931
C  C66  1  0.84500000  0.43000000  0.15380000  1.0 -0.1184934067
C  C67  1  0.86400000  0.50200000  0.20020000  1.0 0.0278437808
C  C68  1  0.94200000  0.40700000  0.14090000  1.0 0.0487669483
C  C69  1  0.07500000  0.46100000  0.17400000  1.0 -0.1184934067
C  C70  1  0.09900000  0.53500000  0.21660000  1.0 -0.0342250429
C  C71  1  0.99800000  0.57100000  0.23340000  1.0 -0.2220670692
C  C72  1  0.24100000  0.59200000  0.24620000  1.0 0.5920897536
C  C73  1  0.35800000  0.39900000  0.59450000  1.0 0.5920897536
C  C74  1  0.34360000  0.45160000  0.53570000  1.0 -0.0039620609
C  C75  1  0.38200000  0.56520000  0.53710000  1.0 -0.1292046097
C  C76  1  0.37400000  0.60630000  0.48460000  1.0 0.0681569018
C  C77  1  0.33620000  0.54700000  0.42670000  1.0 -0.1292046097
C  C78  1  0.30880000  0.39470000  0.48210000  1.0 -0.0830799378
C  C79  1  0.28500000  0.38100000  0.36870000  1.0 0.6132860296
C  C80  1  0.30880000  0.43770000  0.42680000  1.0 -0.0439046956
N  N1  1  0.04350000  0.51170000  0.61650000  1.0 0.4928168096
N  N2  1  0.93020000  0.35350000  0.92230000  1.0 0.5168702714
N  N3  1  0.62060000  0.42250000  0.99620000  1.0 0.5097429268
N  N4  1  0.06600000  0.67300000  0.89990000  1.0 0.4928168096
N  N5  1  0.58600000  0.27600000  0.51810000  1.0 0.5097429268
N  N6  1  0.95650000  0.48830000  0.38350000  1.0 0.4928168096
N  N7  1  0.06980000  0.64650000  0.07770000  1.0 0.5168702714
N  N8  1  0.37940000  0.57750000  0.00380000  1.0 0.5097429268
N  N9  1  0.93400000  0.32700000  0.10010000  1.0 0.4928168096
N  N10  1  0.41400000  0.72400000  0.48190000  1.0 0.5097429268
O  O1  1  0.51410000  0.66630000  0.70710000  1.0 -0.7172247059
O  O2  1  0.53560000  0.80570000  0.76290000  1.0 -0.5382651872
O  O3  1  0.13490000  0.90000000  0.77200000  1.0 -0.685461659
O  O4  1  0.94340000  0.77510000  0.74300000  1.0 -0.6131112017
O  O5  1  0.08930000  0.45130000  0.60080000  1.0 -0.2355161569
O  O6  1  0.93320000  0.49610000  0.59860000  1.0 -0.280391056
O  O7  1  0.82060000  0.96510000  0.75620000  1.0 -0.7092217095
O  O8  1  0.01460000  0.06520000  0.80450000  1.0 -0.6001423982
O  O9  1  0.42630000  0.04230000  0.78690000  1.0 -0.6001423982
O  O10  1  0.44550000  0.16960000  0.85210000  1.0 -0.6290488131
O  O11  1  0.04480000  0.37490000  0.93180000  1.0 -0.280391056
O  O12  1  0.87210000  0.40510000  0.94320000  1.0 -0.318982277
O  O13  1  0.65970000  0.63890000  0.80350000  1.0 -0.635319639
O  O14  1  0.77300000  0.79520000  0.83820000  1.0 -0.5772339887
O  O15  1  0.76980000  0.88460000  0.05670000  1.0 -0.6131112017
O  O16  1  0.76400000  0.76690000  0.12300000  1.0 -0.6596849449
O  O17  1  0.61510000  0.39480000  0.04950000  1.0 -0.318982277
O  O18  1  0.58430000  0.35790000  0.95280000  1.0 -0.3008541353
O  O19  1  0.67680000  0.43520000  0.77560000  1.0 -0.6001423982
O  O20  1  0.72500000  0.33700000  0.71240000  1.0 -0.3635854907
O  O21  1  0.24700000  0.40900000  0.74570000  1.0 -0.5619991906
O  O22  1  0.37000000  0.54500000  0.80100000  1.0 -0.5485577471
O  O23  1  0.98300000  0.69500000  0.91480000  1.0 -0.2257592864
O  O24  1  0.18700000  0.71400000  0.92570000  1.0 -0.3907962926
O  O25  1  0.68860000  0.57280000  0.67930000  1.0 -0.6786744483
O  O26  1  0.75600000  0.71800000  0.62870000  1.0 -0.6185930557
O  O27  1  0.66300000  0.69740000  0.40860000  1.0 -0.5382651872
O  O28  1  0.59500000  0.53860000  0.36070000  1.0 -0.6596849449
O  O29  1  0.55000000  0.22640000  0.46770000  1.0 -0.3635854907
O  O30  1  0.58100000  0.23460000  0.56510000  1.0 -0.2566240169
O  O31  1  0.44530000  0.37310000  0.82330000  1.0 -0.7918789275
O  O32  1  0.47080000  0.30380000  0.69560000  1.0 -0.7769551165
O  O33  1  0.65530000  0.87470000  0.64870000  1.0 -0.7287148125
O  O34  1  0.93300000  0.92700000  0.66280000  1.0 -0.7092217095
O  O35  1  0.24920000  0.14950000  0.74490000  1.0 -0.7422317155
O  O36  1  0.30250000  0.94580000  0.89620000  1.0 -0.7619096525
O  O37  1  0.03100000  0.92010000  0.88930000  1.0 -0.7728878148
O  O38  1  0.48590000  0.33370000  0.29290000  1.0 -0.7172247059
O  O39  1  0.46440000  0.19430000  0.23710000  1.0 -0.5382651872
O  O40  1  0.86510000  0.10000000  0.22800000  1.0 -0.685461659
O  O41  1  0.05660000  0.22490000  0.25700000  1.0 -0.6131112017
O  O42  1  0.91070000  0.54870000  0.39920000  1.0 -0.2355161569
O  O43  1  0.06680000  0.50390000  0.40140000  1.0 -0.280391056
O  O44  1  0.17940000  0.03490000  0.24380000  1.0 -0.7092217095
O  O45  1  0.98540000  0.93480000  0.19550000  1.0 -0.6001423982
O  O46  1  0.57370000  0.95770000  0.21310000  1.0 -0.6001423982
O  O47  1  0.55450000  0.83040000  0.14790000  1.0 -0.6290488131
O  O48  1  0.95520000  0.62510000  0.06820000  1.0 -0.280391056
O  O49  1  0.12790000  0.59490000  0.05680000  1.0 -0.318982277
O  O50  1  0.34030000  0.36110000  0.19650000  1.0 -0.635319639
O  O51  1  0.22700000  0.20480000  0.16180000  1.0 -0.5772339887
O  O52  1  0.23020000  0.11540000  0.94330000  1.0 -0.6131112017
O  O53  1  0.23600000  0.23310000  0.87700000  1.0 -0.6596849449
O  O54  1  0.38490000  0.60520000  0.95050000  1.0 -0.318982277
O  O55  1  0.41570000  0.64210000  0.04720000  1.0 -0.3008541353
O  O56  1  0.32320000  0.56480000  0.22440000  1.0 -0.6001423982
O  O57  1  0.27500000  0.66300000  0.28760000  1.0 -0.3635854907
O  O58  1  0.75300000  0.59100000  0.25430000  1.0 -0.5619991906
O  O59  1  0.63000000  0.45500000  0.19900000  1.0 -0.5485577471
O  O60  1  0.01700000  0.30500000  0.08520000  1.0 -0.2257592864
O  O61  1  0.81300000  0.28600000  0.07430000  1.0 -0.3907962926
O  O62  1  0.31140000  0.42720000  0.32070000  1.0 -0.6786744483
O  O63  1  0.24400000  0.28200000  0.37130000  1.0 -0.6185930557
O  O64  1  0.33700000  0.30260000  0.59140000  1.0 -0.5382651872
O  O65  1  0.40500000  0.46140000  0.63930000  1.0 -0.6596849449
O  O66  1  0.45000000  0.77360000  0.53230000  1.0 -0.3635854907
O  O67  1  0.41900000  0.76540000  0.43490000  1.0 -0.2566240169
O  O68  1  0.55470000  0.62690000  0.17670000  1.0 -0.7918789275
O  O69  1  0.52920000  0.69620000  0.30440000  1.0 -0.7769551165
O  O70  1  0.34470000  0.12530000  0.35130000  1.0 -0.7287148125
O  O71  1  0.06700000  0.07300000  0.33720000  1.0 -0.7092217095
O  O72  1  0.75080000  0.85050000  0.25510000  1.0 -0.7422317155
O  O73  1  0.69750000  0.05420000  0.10380000  1.0 -0.7619096525
O  O74  1  0.96900000  0.07990000  0.11070000  1.0 -0.7728878148
