# DDEC6 charges by PACMAN v1.1 (https://github.com/mtap-research/PACMAN-charge/)
data_XOCQUD_ASR_pacman
_symmetry_space_group_name_H-M   'P 1'
_cell_length_a   11.21480000
_cell_length_b   17.36050000
_cell_length_c   26.97090000
_cell_angle_alpha   84.06700000
_cell_angle_beta   85.01200000
_cell_angle_gamma   71.92000000
_symmetry_Int_Tables_number   1
_chemical_formula_structural   Sm6Cu17C185I12(N7O16)2
_chemical_formula_sum   'Sm6 Cu17 C185 I12 N14 O32'
_cell_volume   4956.70429686
_cell_formula_units_Z   1
loop_
 _symmetry_equiv_pos_site_id
 _symmetry_equiv_pos_as_xyz
  1  'x, y, z'
loop_
 _atom_site_type_symbol
 _atom_site_label
 _atom_site_symmetry_multiplicity
 _atom_site_fract_x
 _atom_site_fract_y
 _atom_site_fract_z
 _atom_site_occupancy
 _atom_site_charge
Sm  Sm1  1  0.75334000  0.94411000  0.59488000  1.0 2.1435214455
Sm  Sm2  1  0.94116000  0.11140000  0.56859000  1.0 2.1919857438
Sm  Sm3  1  0.13538000  0.89697000  0.60798000  1.0 2.0625103886
Sm  Sm4  1  0.25807000  0.09920000  0.62783000  1.0 2.2236069615
Sm  Sm5  1  0.07281000  0.31937000  0.57509000  1.0 2.1229192193
Sm  Sm6  1  0.45207000  0.27779000  0.60158000  1.0 2.1744090493
Cu  Cu1  1  0.18270000  0.58896000  0.04205000  1.0 0.1982499237
Cu  Cu2  1  0.53930000  0.08410000  0.07437000  1.0 0.1898836876
Cu  Cu3  1  0.10090000  0.93160000  0.10950000  1.0 0.3176028903
Cu  Cu4  1  0.70066000  0.12685000  0.13223000  1.0 0.1898836876
Cu  Cu5  1  0.80880000  0.48430000  0.12471000  1.0 0.1283607024
Cu  Cu6  1  0.96770000  0.67478000  0.09365000  1.0 0.1710357914
Cu  Cu7  1  0.10050000  0.31560000  0.08721000  1.0 0.3176028903
Cu  Cu8  1  0.36060000  0.57250000  0.11030000  1.0 0.0990939948
Cu  Cu9  1  0.69310000  0.82095000  0.10655000  1.0 0.1383334107
Cu  Cu10  1  0.49086000  0.97179000  0.13980000  1.0 0.2203109588
Cu  Cu11  1  0.74989000  0.22541000  0.05830000  1.0 0.2203109588
Cu  Cu12  1  0.59640000  0.74428000  0.04765000  1.0 0.1898836876
Cu  Cu13  1  0.60580000  0.70845000  0.16130000  1.0 0.1575203041
Cu  Cu14  1  0.63240000  0.47855000  0.04125000  1.0 0.2337726529
Cu  Cu15  1  0.39560000  0.70390000  0.14120000  1.0 0.1787998999
Cu  Cu16  1  0.81470000  0.57440000  0.14420000  1.0 0.0802850089
Cu  Cu17  1  0.30630000  0.56450000  0.11560000  1.0 0.1383334107
C  C1  1  0.93050000  0.81840000  0.67680000  1.0 0.673286972
C  C2  1  0.55160000  0.05030000  0.68190000  1.0 0.6811739579
C  C3  1  0.97130000  0.93220000  0.50060000  1.0 0.6618101175
C  C4  1  0.65430000  0.13050000  0.52690000  1.0 0.7028799827
C  C5  1  0.95880000  0.77890000  0.72810000  1.0 -0.0580434338
C  C6  1  0.55740000  0.04910000  0.73820000  1.0 -0.0580434338
C  C7  1  0.00560000  0.92170000  0.44460000  1.0 -0.0510761194
C  C8  1  0.65380000  0.13470000  0.47060000  1.0 -0.0580434338
C  C9  1  0.86190000  0.78220000  0.76620000  1.0 0.0594632279
C  C10  1  0.08450000  0.73980000  0.73780000  1.0 0.0305182081
C  C11  1  0.44930000  0.08280000  0.76490000  1.0 0.0191340605
C  C12  1  0.67240000  0.01850000  0.76140000  1.0 0.068578257
C  C13  1  0.09980000  0.94770000  0.41980000  1.0 0.0520228005
C  C14  1  0.93840000  0.88550000  0.41890000  1.0 0.0520228005
C  C15  1  0.09970000  0.19900000  0.47540000  1.0 0.6506126697
C  C16  1  0.83550000  0.30050000  0.51260000  1.0 0.673286972
C  C17  1  0.54720000  0.17350000  0.44640000  1.0 0.0392301741
C  C18  1  0.76670000  0.09630000  0.44360000  1.0 0.0305182081
C  C19  1  0.33850000  0.84400000  0.67070000  1.0 0.5991863783
C  C20  1  0.11460000  0.98860000  0.71620000  1.0 0.6506126697
C  C21  1  0.25820000  0.80550000  0.52360000  1.0 0.5991863783
C  C22  1  0.89450000  0.75050000  0.81420000  1.0 -0.0794155005
C  C23  1  0.11410000  0.70910000  0.78580000  1.0 -0.0580434338
C  C24  1  0.45210000  0.08630000  0.81650000  1.0 -0.0580434338
C  C25  1  0.67350000  0.02080000  0.81310000  1.0 -0.0705237149
C  C26  1  0.12640000  0.93930000  0.36780000  1.0 -0.0794155005
C  C27  1  0.95800000  0.87970000  0.36760000  1.0 -0.0244323269
C  C28  1  0.11330000  0.20740000  0.42010000  1.0 -0.0794155005
C  C29  1  0.81500000  0.33680000  0.46040000  1.0 -0.088271449
C  C30  1  0.54610000  0.17360000  0.39530000  1.0 -0.0510761194
C  C31  1  0.76740000  0.09890000  0.39210000  1.0 -0.0580434338
C  C32  1  0.39570000  0.82600000  0.72190000  1.0 -0.0309378846
C  C33  1  0.10660000  0.98040000  0.77350000  1.0 -0.0510761194
C  C34  1  0.30400000  0.77340000  0.47620000  1.0 -0.0705237149
C  C35  1  0.01940000  0.71500000  0.82430000  1.0 0.068578257
C  C36  1  0.56560000  0.05540000  0.84040000  1.0 0.068578257
C  C37  1  0.05520000  0.91010000  0.34140000  1.0 0.0594632279
C  C38  1  0.17110000  0.26470000  0.39620000  1.0 0.0305182081
C  C39  1  0.05960000  0.16710000  0.39110000  1.0 0.0392301741
C  C40  1  0.76730000  0.29940000  0.42730000  1.0 0.0036262794
C  C41  1  0.85600000  0.40480000  0.44260000  1.0 0.0520228005
C  C42  1  0.26060000  0.24220000  0.70520000  1.0 0.6811739579
C  C43  1  0.47440000  0.01480000  0.53030000  1.0 0.6811739579
C  C44  1  0.98640000  0.37460000  0.67140000  1.0 0.5924595769
C  C45  1  0.29330000  0.38020000  0.50160000  1.0 0.6865229185
C  C46  1  0.65760000  0.13400000  0.36700000  1.0 0.0520228005
C  C47  1  0.42340000  0.88490000  0.74500000  1.0 -0.0020116504
C  C48  1  0.41380000  0.74600000  0.74680000  1.0 0.068578257
C  C49  1  0.15660000  0.02900000  0.79940000  1.0 0.0191340605
C  C50  1  0.05600000  0.92410000  0.79980000  1.0 0.0191340605
C  C51  1  0.24040000  0.73160000  0.45240000  1.0 0.0392301741
C  C52  1  0.40880000  0.79000000  0.45020000  1.0 0.0392301741
C  C53  1  0.05620000  0.68250000  0.87410000  1.0 0.1383334107
C  C54  1  0.56580000  0.06080000  0.89540000  1.0 0.1383334107
C  C55  1  0.06920000  0.90840000  0.28620000  1.0 0.1383334107
C  C56  1  0.18000000  0.27590000  0.34590000  1.0 -0.0705237149
C  C57  1  0.06320000  0.18070000  0.33990000  1.0 -0.0995513076
C  C58  1  0.75820000  0.33040000  0.37830000  1.0 -0.0705237149
C  C59  1  0.84300000  0.43300000  0.39290000  1.0 -0.0309378846
C  C60  1  0.22700000  0.26280000  0.75730000  1.0 -0.0794155005
C  C61  1  0.47490000  0.99770000  0.47580000  1.0 -0.0510761194
C  C62  1  0.93900000  0.40500000  0.72200000  1.0 -0.0400957123
C  C63  1  0.29660000  0.41530000  0.44750000  1.0 -0.0510761194
C  C64  1  0.66230000  0.13400000  0.31290000  1.0 0.1283607024
C  C65  1  0.45820000  0.87270000  0.79270000  1.0 -0.0794155005
C  C66  1  0.44100000  0.73710000  0.79630000  1.0 -0.088271449
C  C67  1  0.15180000  0.01980000  0.85000000  1.0 -0.0510761194
C  C68  1  0.05200000  0.91680000  0.85130000  1.0 -0.0510761194
C  C69  1  0.27380000  0.70750000  0.40640000  1.0 -0.1117935394
C  C70  1  0.45400000  0.76040000  0.40720000  1.0 -0.0580434338
C  C71  1  0.99400000  0.63660000  0.90580000  1.0 -0.1197326506
C  C72  1  0.16100000  0.69270000  0.89150000  1.0 -0.1117935394
C  C73  1  0.48360000  0.12720000  0.91840000  1.0 -0.1585278188
C  C74  1  0.64140000  0.00000000  0.92640000  1.0 -0.1117935394
C  C75  1  0.13830000  0.95510000  0.25730000  1.0 -0.1377447371
C  C76  1  0.02400000  0.86230000  0.25840000  1.0 -0.0794155005
C  C77  1  0.12570000  0.23660000  0.31670000  1.0 0.0594632279
C  C78  1  0.80350000  0.39450000  0.35790000  1.0 0.0520228005
C  C79  1  0.29420000  0.30290000  0.78130000  1.0 0.0594632279
C  C80  1  0.13210000  0.23920000  0.78350000  1.0 0.0191340605
C  C81  1  0.36520000  0.03420000  0.45000000  1.0 0.0802850089
C  C82  1  0.58310000  0.95140000  0.45190000  1.0 0.0120187733
C  C83  1  0.73030000  0.19730000  0.66530000  1.0 0.673286972
C  C84  1  0.83100000  0.39030000  0.74540000  1.0 0.0036262794
C  C85  1  0.00230000  0.44480000  0.74920000  1.0 0.0520228005
C  C86  1  0.19090000  0.45880000  0.42340000  1.0 0.0520228005
C  C87  1  0.41400000  0.39560000  0.41930000  1.0 0.068578257
C  C88  1  0.58750000  0.19740000  0.28180000  1.0 -0.1197326506
C  C89  1  0.74000000  0.06460000  0.28790000  1.0 -0.1377447371
C  C90  1  0.46040000  0.79840000  0.82110000  1.0 0.0392301741
C  C91  1  0.10560000  0.96100000  0.87780000  1.0 0.068578257
C  C92  1  0.38100000  0.72010000  0.38300000  1.0 0.0594632279
C  C93  1  0.03400000  0.60570000  0.95190000  1.0 0.1510326398
C  C94  1  0.19700000  0.66870000  0.94350000  1.0 0.088991801
C  C95  1  0.48350000  0.13140000  0.96830000  1.0 0.1898836876
C  C96  1  0.64130000  0.00630000  0.97720000  1.0 0.1510326398
C  C97  1  0.15000000  0.95810000  0.20900000  1.0 0.1283607024
C  C98  1  0.03060000  0.87010000  0.20970000  1.0 0.1575203041
C  C99  1  0.12030000  0.25250000  0.26140000  1.0 0.0990939948
C  C100  1  0.80520000  0.41990000  0.30600000  1.0 0.088991801
C  C101  1  0.26710000  0.31400000  0.83180000  1.0 -0.0510761194
C  C102  1  0.10540000  0.25200000  0.83250000  1.0 -0.0705237149
C  C103  1  0.36960000  0.02640000  0.39970000  1.0 -0.0705237149
C  C104  1  0.58530000  0.94070000  0.40060000  1.0 -0.0510761194
C  C105  1  0.73710000  0.20100000  0.72190000  1.0 -0.0510761194
C  C106  1  0.78100000  0.41530000  0.79100000  1.0 -0.0400957123
C  C107  1  0.95270000  0.46820000  0.79750000  1.0 -0.0705237149
C  C108  1  0.19580000  0.48850000  0.37380000  1.0 -0.0580434338
C  C109  1  0.41510000  0.42750000  0.36950000  1.0 -0.1305378483
C  C110  1  0.59800000  0.19010000  0.23070000  1.0 0.1787998999
C  C111  1  0.74160000  0.06580000  0.23810000  1.0 0.1510326398
C  C112  1  0.48680000  0.78580000  0.87490000  1.0 0.068578257
C  C113  1  0.10530000  0.94990000  0.93320000  1.0 0.1175593536
C  C114  1  0.44200000  0.70210000  0.33080000  1.0 0.0594632279
C  C115  1  0.20000000  0.29970000  0.23530000  1.0 -0.1858122175
C  C116  1  0.08800000  0.21800000  0.22970000  1.0 0.0191340605
C  C117  1  0.86830000  0.46940000  0.28090000  1.0 -0.1666232571
C  C118  1  0.71400000  0.42800000  0.27480000  1.0 -0.0510761194
C  C119  1  0.17940000  0.28500000  0.85930000  1.0 0.0594632279
C  C120  1  0.47860000  0.97930000  0.37330000  1.0 0.0520228005
C  C121  1  0.84670000  0.16510000  0.74510000  1.0 0.0802850089
C  C122  1  0.62720000  0.24270000  0.74980000  1.0 0.0305182081
C  C123  1  0.84750000  0.45370000  0.81890000  1.0 0.0594632279
C  C124  1  0.30640000  0.46780000  0.34340000  1.0 0.0120187733
C  C125  1  0.54200000  0.83900000  0.90070000  1.0 0.0036262794
C  C126  1  0.54100000  0.71000000  0.89820000  1.0 0.0305182081
C  C127  1  0.18300000  0.98080000  0.95920000  1.0 -0.1514450038
C  C128  1  0.02680000  0.91650000  0.96380000  1.0 -0.1666232571
C  C129  1  0.35300000  0.71910000  0.28830000  1.0 0.0594632279
C  C130  1  0.55900000  0.69500000  0.31600000  1.0 0.0191340605
C  C131  1  0.18500000  0.32150000  0.18630000  1.0 -0.0309378846
C  C132  1  0.09800000  0.23400000  0.17680000  1.0 0.1175593536
C  C133  1  0.87900000  0.48400000  0.23130000  1.0 0.0392301741
C  C134  1  0.70100000  0.46600000  0.22300000  1.0 0.0990939948
C  C135  1  0.16020000  0.29360000  0.91360000  1.0 0.1383334107
C  C136  1  0.48180000  0.97700000  0.31980000  1.0 0.1175593536
C  C137  1  0.85140000  0.16830000  0.79690000  1.0 -0.0580434338
C  C138  1  0.63250000  0.24660000  0.80030000  1.0 -0.0705237149
C  C139  1  0.79460000  0.47400000  0.86980000  1.0 0.1510326398
C  C140  1  0.31400000  0.48910000  0.29160000  1.0 0.088991801
C  C141  1  0.52000000  0.83600000  0.94850000  1.0 0.0305182081
C  C142  1  0.57000000  0.69800000  0.94970000  1.0 0.068578257
C  C143  1  0.22400000  0.95200000  0.00820000  1.0 0.1099554202
C  C144  1  0.02660000  0.91160000  0.01650000  1.0 0.0802850089
C  C145  1  0.40800000  0.71010000  0.24470000  1.0 0.1099554202
C  C146  1  0.60700000  0.66500000  0.27160000  1.0 0.088991801
C  C147  1  0.19900000  0.34820000  0.93630000  1.0 -0.0995513076
C  C148  1  0.10630000  0.24420000  0.94580000  1.0 -0.1585278188
C  C149  1  0.41210000  0.04160000  0.28910000  1.0 -0.1305378483
C  C150  1  0.54990000  0.90700000  0.29630000  1.0 -0.1305378483
C  C151  1  0.74400000  0.20980000  0.82440000  1.0 0.0520228005
C  C152  1  0.66700000  0.49340000  0.88230000  1.0 -0.1305378483
C  C153  1  0.87130000  0.46270000  0.90860000  1.0 -0.1666232571
C  C154  1  0.21900000  0.55900000  0.26890000  1.0 0.0520228005
C  C155  1  0.42700000  0.48000000  0.26320000  1.0 0.0305182081
C  C156  1  0.17370000  0.35660000  0.98880000  1.0 0.1898836876
C  C157  1  0.08970000  0.25030000  0.99560000  1.0 0.1510326398
C  C158  1  0.41570000  0.03600000  0.23680000  1.0 0.2087598766
C  C159  1  0.54820000  0.90690000  0.24420000  1.0 0.1510326398
C  C160  1  0.74740000  0.21550000  0.88000000  1.0 0.1283607024
C  C161  1  0.62230000  0.50310000  0.93090000  1.0 0.1383334107
C  C162  1  0.82100000  0.47280000  0.95830000  1.0 0.1982499237
C  C163  1  0.22800000  0.55920000  0.21470000  1.0 0.1383334107
C  C164  1  0.41000000  0.46570000  0.20560000  1.0 0.0802850089
C  C165  1  0.82550000  0.15100000  0.90820000  1.0 -0.1377447371
C  C166  1  0.67000000  0.28260000  0.90400000  1.0 -0.1377447371
C  C167  1  0.82970000  0.15560000  0.96110000  1.0 0.2087598766
C  C168  1  0.67730000  0.28310000  0.95490000  1.0 0.1710357914
C  C169  1  0.46900000  0.71800000  0.90420000  1.0 0.0392301741
C  C170  1  0.17300000  0.98510000  0.00950000  1.0 0.0990939948
C  C171  1  0.37900000  0.69800000  0.21610000  1.0 -0.1117935394
C  C172  1  0.27000000  0.71800000  0.29500000  1.0 -0.1585278188
C  C173  1  0.37300000  0.70800000  0.31440000  1.0 0.0392301741
C  C174  1  0.56500000  0.66400000  0.31880000  1.0 0.0036262794
C  C175  1  0.78200000  0.37800000  0.21310000  1.0 -0.0020116504
C  C176  1  0.78100000  0.36100000  0.26830000  1.0 0.0120187733
C  C177  1  0.20400000  0.52600000  0.26150000  1.0 0.0120187733
C  C178  1  0.39300000  0.43700000  0.25570000  1.0 0.0120187733
C  C179  1  0.01700000  0.23700000  0.23710000  1.0 0.0191340605
C  C180  1  0.02700000  0.25950000  0.18100000  1.0 0.1099554202
C  C181  1  0.80800000  0.51100000  0.22000000  1.0 0.1510326398
C  C182  1  0.68200000  0.66900000  0.25300000  1.0 -0.1377447371
C  C183  1  0.46200000  0.83160000  0.95620000  1.0 0.0802850089
C  C184  1  0.46100000  0.84600000  0.90800000  1.0 -0.0794155005
C  C185  1  0.49600000  0.70820000  0.95660000  1.0 0.0802850089
I  I1  1  0.01927000  0.51341000  0.09062000  1.0 -0.2914636706
I  I2  1  0.18472000  0.71380000  0.09244000  1.0 -0.2914636706
I  I3  1  0.39892000  0.47041000  0.04476000  1.0 -0.3246503
I  I4  1  0.72837000  0.96391000  0.11416000  1.0 -0.2793601279
I  I5  1  0.30394000  0.08557000  0.10108000  1.0 -0.4222863738
I  I6  1  0.51445000  0.23678000  0.09124000  1.0 -0.313025934
I  I7  1  0.60511000  0.60248000  0.09769000  1.0 -0.2443099593
I  I8  1  0.79219000  0.35744000  0.08628000  1.0 -0.3857810621
I  I9  1  0.82015000  0.76459000  0.02249000  1.0 -0.2793601279
I  I10  1  0.82986000  0.72060000  0.17723000  1.0 -0.1117935394
I  I11  1  0.44368000  0.84010000  0.11248000  1.0 -0.2443099593
I  I12  1  0.93400000  0.11414000  0.10259000  1.0 -0.4116588657
N  N1  1  0.13280000  0.62440000  0.97250000  1.0 -0.0794155005
N  N2  1  0.56090000  0.07440000  0.99940000  1.0 -0.1197326506
N  N3  1  0.09720000  0.91610000  0.18180000  1.0 -0.217450497
N  N4  1  0.67580000  0.12770000  0.20800000  1.0 -0.088271449
N  N5  1  0.11070000  0.29130000  0.15770000  1.0 -0.1197326506
N  N6  1  0.80830000  0.46040000  0.20160000  1.0 0.0120187733
N  N7  1  0.75480000  0.22170000  0.98350000  1.0 -0.1197326506
N  N8  1  0.52950000  0.76260000  0.97750000  1.0 -0.1858122175
N  N9  1  0.10810000  0.93170000  0.03840000  1.0 -0.0580434338
N  N10  1  0.52600000  0.68660000  0.23170000  1.0 -0.0995513076
N  N11  1  0.31700000  0.53730000  0.18630000  1.0 -0.217450497
N  N12  1  0.48170000  0.97030000  0.21490000  1.0 -0.1197326506
N  N13  1  0.12700000  0.30280000  0.01800000  1.0 -0.1514450038
N  N14  1  0.69950000  0.49090000  0.96820000  1.0 -0.1514450038
O  O1  1  0.81370000  0.86390000  0.67090000  1.0 -0.6757665102
O  O2  1  0.65460000  0.03350000  0.65570000  1.0 -0.6340856378
O  O3  1  0.88550000  0.90930000  0.51960000  1.0 -0.6081331794
O  O4  1  0.75190000  0.08450000  0.54770000  1.0 -0.7203815405
O  O5  1  0.92370000  0.99030000  0.61690000  1.0 -1.1456452434
O  O6  1  0.57610000  0.98440000  0.55160000  1.0 -0.7079337065
O  O7  1  0.01280000  0.81340000  0.64290000  1.0 -0.6189410512
O  O8  1  0.44670000  0.06770000  0.66470000  1.0 -0.6597939953
O  O9  1  0.03260000  0.97070000  0.52140000  1.0 -0.6407926107
O  O10  1  0.05630000  0.14230000  0.49410000  1.0 -0.6000724261
O  O11  1  0.81480000  0.23370000  0.52610000  1.0 -0.6407926107
O  O12  1  0.15070000  0.03100000  0.58290000  1.0 -1.101052386
O  O13  1  0.05070000  0.18960000  0.60710000  1.0 -1.1071673457
O  O14  1  0.82770000  0.15880000  0.64510000  1.0 -0.5174391095
O  O15  1  0.55920000  0.17280000  0.54970000  1.0 -0.6000724261
O  O16  1  0.29550000  0.79280000  0.65570000  1.0 -0.6000724261
O  O17  1  0.33750000  0.90860000  0.64700000  1.0 -0.5906304245
O  O18  1  0.08440000  0.93810000  0.69530000  1.0 -0.5613190953
O  O19  1  0.16400000  0.79080000  0.54960000  1.0 -0.6000724261
O  O20  1  0.30690000  0.85440000  0.54200000  1.0 -0.5760398929
O  O21  1  0.13240000  0.24490000  0.50050000  1.0 -0.5906304245
O  O22  1  0.88130000  0.33810000  0.54060000  1.0 -0.6597939953
O  O23  1  0.14850000  0.04790000  0.69530000  1.0 -0.6189410512
O  O24  1  0.20710000  0.20030000  0.68690000  1.0 -0.5719710414
O  O25  1  0.37300000  0.05490000  0.55030000  1.0 -0.5477379982
O  O26  1  0.28960000  0.22430000  0.58390000  1.0 -1.2000140969
O  O27  1  0.92490000  0.34100000  0.64960000  1.0 -0.5313253228
O  O28  1  0.08870000  0.38080000  0.65360000  1.0 -0.6000724261
O  O29  1  0.18590000  0.39200000  0.52160000  1.0 -0.6597939953
O  O30  1  0.35030000  0.26560000  0.68050000  1.0 -0.7260556643
O  O31  1  0.62870000  0.23060000  0.64750000  1.0 -0.6673565333
O  O32  1  0.39450000  0.34180000  0.51960000  1.0 -0.6407926107
