# DDEC6 charges by PACMAN v1.1 (https://github.com/mtap-research/PACMAN-charge/)
data_XODDAY_ASR_pacman
_symmetry_space_group_name_H-M   'P 1'
_cell_length_a   16.83480000
_cell_length_b   16.83480000
_cell_length_c   16.83480000
_cell_angle_alpha   115.44600000
_cell_angle_beta   115.44600000
_cell_angle_gamma   98.08690000
_symmetry_Int_Tables_number   1
_chemical_formula_structural   CoH14C11N7O2
_chemical_formula_sum   'Co8 H112 C88 N56 O16'
_cell_volume   3567.39571863
_cell_formula_units_Z   8
loop_
 _symmetry_equiv_pos_site_id
 _symmetry_equiv_pos_as_xyz
  1  'x, y, z'
loop_
 _atom_site_type_symbol
 _atom_site_label
 _atom_site_symmetry_multiplicity
 _atom_site_fract_x
 _atom_site_fract_y
 _atom_site_fract_z
 _atom_site_occupancy
 _atom_site_charge
Co  Co1  1  0.35633000  0.59629000  0.32032000  1.0 0.7301714407
Co  Co2  1  0.27597000  0.03601000  0.67968000  1.0 0.7301714407
Co  Co3  1  0.78601000  0.60633000  0.26004000  1.0 0.7301714407
Co  Co4  1  0.34629000  0.52597000  0.73996000  1.0 0.7301714407
Co  Co5  1  0.39367000  0.65371000  0.17968000  1.0 0.7301714407
Co  Co6  1  0.47403000  0.21399000  0.82032000  1.0 0.7301714407
Co  Co7  1  0.96399000  0.64367000  0.23996000  1.0 0.7301714407
Co  Co8  1  0.40371000  0.72403000  0.76004000  1.0 0.7301714407
H  H1  1  0.38498000  0.71217000  0.54507000  1.0 0.1226547822
H  H2  1  0.25033000  0.32234000  0.50917000  1.0 0.0916564488
H  H3  1  0.17726000  0.29543000  0.99531000  1.0 0.059361723
H  H4  1  0.17871000  0.36087000  0.86384000  1.0 0.1085535288
H  H5  1  0.13213000  0.25278000  0.82289000  1.0 0.0839103447
H  H6  1  0.24378000  0.30905000  0.89841000  1.0 0.1226547822
H  H7  1  0.07224000  0.37583000  0.01725000  1.0 0.101865171
H  H8  1  0.02273000  0.30010000  0.89685000  1.0 0.101865171
H  H9  1  0.07450000  0.40903000  0.94407000  1.0 0.1085535288
H  H10  1  0.29700000  0.39300000  0.25800000  1.0 0.1883583205
H  H11  1  0.29300000  0.28900000  0.24400000  1.0 0.1384799737
H  H12  1  0.23576000  0.28132000  0.23062000  1.0 0.1384799737
H  H13  1  0.18594000  0.33887000  0.21459000  1.0 0.1595361229
H  H14  1  0.30177000  0.33130000  0.53601000  1.0 0.0916564488
H  H15  1  0.16710000  0.83991000  0.45493000  1.0 0.1226547822
H  H16  1  0.81317000  0.74116000  0.49083000  1.0 0.0916564488
H  H17  1  0.30012000  0.18195000  0.00469000  1.0 0.059361723
H  H18  1  0.49703000  0.31487000  0.13616000  1.0 0.1085535288
H  H19  1  0.42989000  0.30924000  0.17711000  1.0 0.0839103447
H  H20  1  0.41064000  0.34537000  0.10159000  1.0 0.1226547822
H  H21  1  0.35858000  0.05499000  0.98275000  1.0 0.101865171
H  H22  1  0.40325000  0.12588000  0.10315000  1.0 0.101865171
H  H23  1  0.46496000  0.13043000  0.05593000  1.0 0.1085535288
H  H24  1  0.13500000  0.03900000  0.74200000  1.0 0.1883583205
H  H25  1  0.04500000  0.04900000  0.75600000  1.0 0.1384799737
H  H26  1  0.05070000  0.00514000  0.76938000  1.0 0.1384799737
H  H27  1  0.12428000  0.97135000  0.78541000  1.0 0.1595361229
H  H28  1  0.79529000  0.76576000  0.46399000  1.0 0.0916564488
H  H29  1  0.58991000  0.63498000  0.17281000  1.0 0.1226547822
H  H30  1  0.49116000  0.50033000  0.42799000  1.0 0.0916564488
H  H31  1  0.93195000  0.42726000  0.38183000  1.0 0.059361723
H  H32  1  0.06487000  0.42871000  0.31784000  1.0 0.1085535288
H  H33  1  0.05924000  0.38213000  0.37935000  1.0 0.0839103447
H  H34  1  0.09537000  0.49378000  0.43473000  1.0 0.1226547822
H  H35  1  0.80499000  0.32224000  0.19641000  1.0 0.101865171
H  H36  1  0.87588000  0.27273000  0.22263000  1.0 0.101865171
H  H37  1  0.88043000  0.32450000  0.16547000  1.0 0.1085535288
H  H38  1  0.78900000  0.54700000  0.40400000  1.0 0.1883583205
H  H39  1  0.79900000  0.54300000  0.50400000  1.0 0.1384799737
H  H40  1  0.75514000  0.48576000  0.45444000  1.0 0.1384799737
H  H41  1  0.72135000  0.43594000  0.34707000  1.0 0.1595361229
H  H42  1  0.51576000  0.55177000  0.47047000  1.0 0.0916564488
H  H43  1  0.46217000  0.41710000  0.82719000  1.0 0.1226547822
H  H44  1  0.07234000  0.06317000  0.57201000  1.0 0.0916564488
H  H45  1  0.04543000  0.55012000  0.61817000  1.0 0.059361723
H  H46  1  0.11087000  0.74703000  0.68216000  1.0 0.1085535288
H  H47  1  0.00278000  0.67989000  0.62065000  1.0 0.0839103447
H  H48  1  0.05905000  0.66064000  0.56527000  1.0 0.1226547822
H  H49  1  0.12583000  0.60858000  0.80359000  1.0 0.101865171
H  H50  1  0.05010000  0.65325000  0.77737000  1.0 0.101865171
H  H51  1  0.15903000  0.71496000  0.83453000  1.0 0.1085535288
H  H52  1  0.14300000  0.38500000  0.59600000  1.0 0.1883583205
H  H53  1  0.03900000  0.29500000  0.49600000  1.0 0.1384799737
H  H54  1  0.03132000  0.30070000  0.54556000  1.0 0.1384799737
H  H55  1  0.08887000  0.37428000  0.65293000  1.0 0.1595361229
H  H56  1  0.08130000  0.04529000  0.52953000  1.0 0.0916564488
H  H57  1  0.36502000  0.53783000  0.95493000  1.0 0.1226547822
H  H58  1  0.49967000  0.92766000  0.99083000  1.0 0.0916564488
H  H59  1  0.57274000  0.95457000  0.50469000  1.0 0.059361723
H  H60  1  0.57129000  0.88913000  0.63616000  1.0 0.1085535288
H  H61  1  0.61787000  0.99722000  0.67711000  1.0 0.0839103447
H  H62  1  0.50622000  0.94095000  0.60159000  1.0 0.1226547822
H  H63  1  0.67776000  0.87417000  0.48275000  1.0 0.101865171
H  H64  1  0.72727000  0.94990000  0.60315000  1.0 0.101865171
H  H65  1  0.67550000  0.84097000  0.55593000  1.0 0.1085535288
H  H66  1  0.45300000  0.85700000  0.24200000  1.0 0.1883583205
H  H67  1  0.45700000  0.96100000  0.25600000  1.0 0.1384799737
H  H68  1  0.51424000  0.96868000  0.26938000  1.0 0.1384799737
H  H69  1  0.56406000  0.91113000  0.28541000  1.0 0.1595361229
H  H70  1  0.44823000  0.91870000  0.96399000  1.0 0.0916564488
H  H71  1  0.58290000  0.41009000  0.04507000  1.0 0.1226547822
H  H72  1  0.93683000  0.50884000  0.00917000  1.0 0.0916564488
H  H73  1  0.44988000  0.06805000  0.49531000  1.0 0.059361723
H  H74  1  0.25297000  0.93513000  0.36384000  1.0 0.1085535288
H  H75  1  0.32011000  0.94076000  0.32289000  1.0 0.0839103447
H  H76  1  0.33936000  0.90463000  0.39841000  1.0 0.1226547822
H  H77  1  0.39142000  0.19501000  0.51725000  1.0 0.101865171
H  H78  1  0.34675000  0.12412000  0.39685000  1.0 0.101865171
H  H79  1  0.28504000  0.11957000  0.44407000  1.0 0.1085535288
H  H80  1  0.61500000  0.21100000  0.75800000  1.0 0.1883583205
H  H81  1  0.70500000  0.20100000  0.74400000  1.0 0.1384799737
H  H82  1  0.69930000  0.24486000  0.73062000  1.0 0.1384799737
H  H83  1  0.62572000  0.27865000  0.71459000  1.0 0.1595361229
H  H84  1  0.95471000  0.48424000  0.03601000  1.0 0.0916564488
H  H85  1  0.16009000  0.61502000  0.32719000  1.0 0.1226547822
H  H86  1  0.25884000  0.74967000  0.07201000  1.0 0.0916564488
H  H87  1  0.81805000  0.82274000  0.11817000  1.0 0.059361723
H  H88  1  0.68513000  0.82129000  0.18216000  1.0 0.1085535288
H  H89  1  0.69076000  0.86787000  0.12065000  1.0 0.0839103447
H  H90  1  0.65463000  0.75622000  0.06527000  1.0 0.1226547822
H  H91  1  0.94501000  0.92776000  0.30359000  1.0 0.101865171
H  H92  1  0.87412000  0.97727000  0.27737000  1.0 0.101865171
H  H93  1  0.86957000  0.92550000  0.33453000  1.0 0.1085535288
H  H94  1  0.96100000  0.70300000  0.09600000  1.0 0.1883583205
H  H95  1  0.95100000  0.70700000  0.99600000  1.0 0.1384799737
H  H96  1  0.99486000  0.76424000  0.04556000  1.0 0.1384799737
H  H97  1  0.02865000  0.81406000  0.15293000  1.0 0.1595361229
H  H98  1  0.23424000  0.69823000  0.02953000  1.0 0.0916564488
H  H99  1  0.28783000  0.83290000  0.67281000  1.0 0.1226547822
H  H100  1  0.67766000  0.18683000  0.92799000  1.0 0.0916564488
H  H101  1  0.70457000  0.69988000  0.88183000  1.0 0.059361723
H  H102  1  0.63913000  0.50297000  0.81784000  1.0 0.1085535288
H  H103  1  0.74722000  0.57011000  0.87935000  1.0 0.0839103447
H  H104  1  0.69095000  0.58936000  0.93473000  1.0 0.1226547822
H  H105  1  0.62417000  0.64142000  0.69641000  1.0 0.101865171
H  H106  1  0.69990000  0.59675000  0.72263000  1.0 0.101865171
H  H107  1  0.59097000  0.53504000  0.66547000  1.0 0.1085535288
H  H108  1  0.60700000  0.86500000  0.90400000  1.0 0.1883583205
H  H109  1  0.71100000  0.95500000  0.00400000  1.0 0.1384799737
H  H110  1  0.71868000  0.94930000  0.95444000  1.0 0.1384799737
H  H111  1  0.66113000  0.87572000  0.84707000  1.0 0.1595361229
H  H112  1  0.66870000  0.20471000  0.97047000  1.0 0.0916564488
C  C1  1  0.31320000  0.48910000  0.43710000  1.0 -0.0051281168
C  C2  1  0.32930000  0.52530000  0.54060000  1.0 0.2295723339
C  C3  1  0.36550000  0.64930000  0.52740000  1.0 0.1595361229
C  C4  1  0.25620000  0.44480000  0.08100000  1.0 0.6080231206
C  C5  1  0.26770000  0.36540000  0.49290000  1.0 0.0383213214
C  C6  1  0.17500000  0.34490000  0.97930000  1.0 0.0180842872
C  C7  1  0.26570000  0.38520000  0.35630000  1.0 0.1883583205
C  C8  1  0.18330000  0.31390000  0.88160000  1.0 -0.4725186131
C  C9  1  0.07610000  0.35890000  0.95720000  1.0 -0.4823838933
C  C10  1  0.30020000  0.37070000  0.51050000  1.0 0.0547937067
C  C11  1  0.29450000  0.38850000  0.37420000  1.0 0.1821682067
C  C12  1  0.05200000  0.87610000  0.56290000  1.0 -0.0051281168
C  C13  1  0.98470000  0.78870000  0.45940000  1.0 0.2295723339
C  C14  1  0.12190000  0.83810000  0.47260000  1.0 0.1595361229
C  C15  1  0.36380000  0.17520000  0.91900000  1.0 0.6080231206
C  C16  1  0.87250000  0.77480000  0.50710000  1.0 0.0383213214
C  C17  1  0.36560000  0.19570000  0.02070000  1.0 0.0180842872
C  C18  1  0.02890000  0.90940000  0.64370000  1.0 0.1883583205
C  C19  1  0.43230000  0.30170000  0.11840000  1.0 -0.4725186131
C  C20  1  0.40170000  0.11890000  0.04280000  1.0 -0.4823838933
C  C21  1  0.86020000  0.78970000  0.48950000  1.0 0.059361723
C  C22  1  0.01430000  0.92030000  0.62580000  1.0 0.1821682067
C  C23  1  0.62610000  0.56320000  0.32410000  1.0 -0.0051281168
C  C24  1  0.53870000  0.57930000  0.30400000  1.0 0.2295723339
C  C25  1  0.58810000  0.61550000  0.21620000  1.0 0.1595361229
C  C26  1  0.92520000  0.50620000  0.31140000  1.0 0.6080231206
C  C27  1  0.52480000  0.51770000  0.40230000  1.0 0.0383213214
C  C28  1  0.94570000  0.42500000  0.33010000  1.0 0.0180842872
C  C29  1  0.65940000  0.51570000  0.38050000  1.0 0.1883583205
C  C30  1  0.05170000  0.43330000  0.36940000  1.0 -0.4725186131
C  C31  1  0.86890000  0.32610000  0.21720000  1.0 -0.4823838933
C  C32  1  0.53970000  0.55020000  0.42950000  1.0 0.059361723
C  C33  1  0.67030000  0.54450000  0.40600000  1.0 0.1821682067
C  C34  1  0.23910000  0.30200000  0.67590000  1.0 -0.0051281168
C  C35  1  0.27530000  0.23470000  0.69600000  1.0 0.2295723339
C  C36  1  0.39930000  0.37190000  0.78380000  1.0 0.1595361229
C  C37  1  0.19480000  0.61380000  0.68860000  1.0 0.6080231206
C  C38  1  0.11540000  0.12250000  0.59770000  1.0 0.0383213214
C  C39  1  0.09490000  0.61560000  0.66990000  1.0 0.0180842872
C  C40  1  0.13520000  0.27890000  0.61950000  1.0 0.1883583205
C  C41  1  0.06390000  0.68230000  0.63060000  1.0 -0.4725186131
C  C42  1  0.10890000  0.65170000  0.78280000  1.0 -0.4823838933
C  C43  1  0.12070000  0.11020000  0.57050000  1.0 0.0547937067
C  C44  1  0.13850000  0.26430000  0.59400000  1.0 0.1821682067
C  C45  1  0.43680000  0.76090000  0.06290000  1.0 -0.0051281168
C  C46  1  0.42070000  0.72470000  0.95940000  1.0 0.2295723339
C  C47  1  0.38450000  0.60070000  0.97260000  1.0 0.1595361229
C  C48  1  0.49380000  0.80520000  0.41900000  1.0 0.6080231206
C  C49  1  0.48230000  0.88460000  0.00710000  1.0 0.0383213214
C  C50  1  0.57500000  0.90510000  0.52070000  1.0 0.0180842872
C  C51  1  0.48430000  0.86480000  0.14370000  1.0 0.1883583205
C  C52  1  0.56670000  0.93610000  0.61840000  1.0 -0.4725186131
C  C53  1  0.67390000  0.89110000  0.54280000  1.0 -0.4823838933
C  C54  1  0.44980000  0.87930000  0.98950000  1.0 0.059361723
C  C55  1  0.45550000  0.86150000  0.12580000  1.0 0.1821682067
C  C56  1  0.69800000  0.37390000  0.93710000  1.0 -0.0051281168
C  C57  1  0.76530000  0.46130000  0.04060000  1.0 0.2295723339
C  C58  1  0.62810000  0.41190000  0.02740000  1.0 0.1595361229
C  C59  1  0.38620000  0.07480000  0.58100000  1.0 0.6080231206
C  C60  1  0.87750000  0.47520000  0.99290000  1.0 0.0383213214
C  C61  1  0.38440000  0.05430000  0.47930000  1.0 0.0180842872
C  C62  1  0.72110000  0.34060000  0.85630000  1.0 0.1883583205
C  C63  1  0.31770000  0.94830000  0.38160000  1.0 -0.4725186131
C  C64  1  0.34830000  0.13110000  0.45720000  1.0 -0.4823838933
C  C65  1  0.88980000  0.46030000  0.01050000  1.0 0.059361723
C  C66  1  0.73570000  0.32970000  0.87420000  1.0 0.1821682067
C  C67  1  0.12390000  0.68680000  0.17590000  1.0 -0.0051281168
C  C68  1  0.21130000  0.67070000  0.19600000  1.0 0.2295723339
C  C69  1  0.16190000  0.63450000  0.28380000  1.0 0.1595361229
C  C70  1  0.82480000  0.74380000  0.18860000  1.0 0.6080231206
C  C71  1  0.22520000  0.73230000  0.09770000  1.0 0.0383213214
C  C72  1  0.80430000  0.82500000  0.16990000  1.0 0.0180842872
C  C73  1  0.09060000  0.73430000  0.11950000  1.0 0.1883583205
C  C74  1  0.69830000  0.81670000  0.13060000  1.0 -0.4725186131
C  C75  1  0.88110000  0.92390000  0.28280000  1.0 -0.4823838933
C  C76  1  0.21030000  0.69980000  0.07050000  1.0 0.0547937067
C  C77  1  0.07970000  0.70550000  0.09400000  1.0 0.1821682067
C  C78  1  0.51090000  0.94800000  0.82410000  1.0 -0.0051281168
C  C79  1  0.47470000  0.01530000  0.80400000  1.0 0.2295723339
C  C80  1  0.35070000  0.87810000  0.71620000  1.0 0.1595361229
C  C81  1  0.55520000  0.63620000  0.81140000  1.0 0.6080231206
C  C82  1  0.63460000  0.12750000  0.90230000  1.0 0.0383213214
C  C83  1  0.65510000  0.63440000  0.83010000  1.0 0.0180842872
C  C84  1  0.61480000  0.97110000  0.88050000  1.0 0.1883583205
C  C85  1  0.68610000  0.56770000  0.86940000  1.0 -0.4725186131
C  C86  1  0.64110000  0.59830000  0.71720000  1.0 -0.4823838933
C  C87  1  0.62930000  0.13980000  0.92950000  1.0 0.059361723
C  C88  1  0.61150000  0.98570000  0.90600000  1.0 0.1821682067
N  N1  1  0.33850000  0.57230000  0.42980000  1.0 -0.4954927825
N  N2  1  0.36160000  0.62710000  0.59770000  1.0 -0.4077371335
N  N3  1  0.31460000  0.46500000  0.57800000  1.0 -0.2938314355
N  N4  1  0.24460000  0.32450000  0.39190000  1.0 -0.0828085332
N  N5  1  0.28090000  0.34480000  0.27270000  1.0 -0.1920418455
N  N6  1  0.24050000  0.33950000  0.25320000  1.0 -0.134795559
N  N7  1  0.28430000  0.32950000  0.41240000  1.0 -0.0902378294
N  N8  1  0.14250000  0.90870000  0.57020000  1.0 -0.4954927825
N  N9  1  0.02940000  0.76390000  0.40230000  1.0 -0.4077371335
N  N10  1  0.88700000  0.73660000  0.42200000  1.0 -0.2938314355
N  N11  1  0.93260000  0.85270000  0.60810000  1.0 -0.0828085332
N  N12  1  0.07210000  0.00820000  0.72730000  1.0 -0.1920418455
N  N13  1  0.08630000  0.98730000  0.74680000  1.0 -0.134795559
N  N14  1  0.91710000  0.87190000  0.58760000  1.0 -0.0902378294
N  N15  1  0.65870000  0.58850000  0.26620000  1.0 -0.4941055043
N  N16  1  0.51390000  0.61160000  0.23450000  1.0 -0.4077371335
N  N17  1  0.48660000  0.56460000  0.34960000  1.0 -0.2938314355
N  N18  1  0.60270000  0.49460000  0.42010000  1.0 -0.0828085332
N  N19  1  0.75820000  0.53090000  0.43610000  1.0 -0.1920418455
N  N20  1  0.73730000  0.49050000  0.40100000  1.0 -0.134795559
N  N21  1  0.62190000  0.53430000  0.45480000  1.0 -0.0902378294
N  N22  1  0.32230000  0.39250000  0.73380000  1.0 -0.4954927825
N  N23  1  0.37710000  0.27940000  0.76550000  1.0 -0.4077371335
N  N24  1  0.21500000  0.13700000  0.65040000  1.0 -0.2938314355
N  N25  1  0.07450000  0.18260000  0.57990000  1.0 -0.0828085332
N  N26  1  0.09480000  0.32210000  0.56390000  1.0 -0.1920418455
N  N27  1  0.08950000  0.33630000  0.59900000  1.0 -0.134795559
N  N28  1  0.07950000  0.16710000  0.54520000  1.0 -0.0902378294
N  N29  1  0.41150000  0.67770000  0.07020000  1.0 -0.4954927825
N  N30  1  0.38840000  0.62290000  0.90230000  1.0 -0.4077371335
N  N31  1  0.43540000  0.78500000  0.92200000  1.0 -0.2938314355
N  N32  1  0.50540000  0.92550000  0.10810000  1.0 -0.0828085332
N  N33  1  0.46910000  0.90520000  0.22730000  1.0 -0.1920418455
N  N34  1  0.50950000  0.91050000  0.24680000  1.0 -0.134795559
N  N35  1  0.46570000  0.92050000  0.08760000  1.0 -0.0902378294
N  N36  1  0.60750000  0.34130000  0.92980000  1.0 -0.4941055043
N  N37  1  0.72060000  0.48610000  0.09770000  1.0 -0.4077371335
N  N38  1  0.86300000  0.51340000  0.07800000  1.0 -0.2938314355
N  N39  1  0.81740000  0.39730000  0.89190000  1.0 -0.0828085332
N  N40  1  0.67790000  0.24180000  0.77270000  1.0 -0.1920418455
N  N41  1  0.66370000  0.26270000  0.75320000  1.0 -0.134795559
N  N42  1  0.83290000  0.37810000  0.91240000  1.0 -0.0902378294
N  N43  1  0.09130000  0.66150000  0.23380000  1.0 -0.4954927825
N  N44  1  0.23610000  0.63840000  0.26550000  1.0 -0.4077371335
N  N45  1  0.26340000  0.68540000  0.15040000  1.0 -0.2938314355
N  N46  1  0.14730000  0.75540000  0.07990000  1.0 -0.0828085332
N  N47  1  0.99180000  0.71910000  0.06390000  1.0 -0.1920418455
N  N48  1  0.01270000  0.75950000  0.09900000  1.0 -0.134795559
N  N49  1  0.12810000  0.71570000  0.04520000  1.0 -0.0902378294
N  N50  1  0.42770000  0.85750000  0.76620000  1.0 -0.4954927825
N  N51  1  0.37290000  0.97060000  0.73450000  1.0 -0.4077371335
N  N52  1  0.53500000  0.11300000  0.84960000  1.0 -0.2938314355
N  N53  1  0.67550000  0.06740000  0.92010000  1.0 -0.0828085332
N  N54  1  0.65520000  0.92790000  0.93610000  1.0 -0.1920418455
N  N55  1  0.66050000  0.91370000  0.90100000  1.0 -0.134795559
N  N56  1  0.67050000  0.08290000  0.95480000  1.0 -0.0902378294
O  O1  1  0.27570000  0.46180000  0.17330000  1.0 -0.6162104918
O  O2  1  0.29750000  0.50740000  0.06870000  1.0 -0.5566307767
O  O3  1  0.28850000  0.10240000  0.82670000  1.0 -0.6162104918
O  O4  1  0.43870000  0.22880000  0.93130000  1.0 -0.5566307767
O  O5  1  0.85240000  0.52570000  0.31390000  1.0 -0.6162104918
O  O6  1  0.97880000  0.54750000  0.29010000  1.0 -0.5566307767
O  O7  1  0.21180000  0.53850000  0.68610000  1.0 -0.6162104918
O  O8  1  0.25740000  0.68870000  0.70990000  1.0 -0.5566307767
O  O9  1  0.47430000  0.78820000  0.32670000  1.0 -0.6162104918
O  O10  1  0.45250000  0.74260000  0.43130000  1.0 -0.5566307767
O  O11  1  0.46150000  0.14760000  0.67330000  1.0 -0.6162104918
O  O12  1  0.31130000  0.02120000  0.56870000  1.0 -0.5566307767
O  O13  1  0.89760000  0.72430000  0.18610000  1.0 -0.6162104918
O  O14  1  0.77120000  0.70250000  0.20990000  1.0 -0.5566307767
O  O15  1  0.53820000  0.71150000  0.81390000  1.0 -0.6162104918
O  O16  1  0.49260000  0.56130000  0.79010000  1.0 -0.5566307767
