# DDEC6 charges by PACMAN v1.1 (https://github.com/mtap-research/PACMAN-charge/)
data_XODMUB_ASR_pacman
_symmetry_space_group_name_H-M   'P 1'
_cell_length_a   8.67460000
_cell_length_b   13.88420000
_cell_length_c   24.93370000
_cell_angle_alpha   90.00000000
_cell_angle_beta   90.00000000
_cell_angle_gamma   90.00000000
_symmetry_Int_Tables_number   1
_chemical_formula_structural   Ho2H10C16O13
_chemical_formula_sum   'Ho8 H40 C64 O52'
_cell_volume   3003.01186887
_cell_formula_units_Z   4
loop_
 _symmetry_equiv_pos_site_id
 _symmetry_equiv_pos_as_xyz
  1  'x, y, z'
loop_
 _atom_site_type_symbol
 _atom_site_label
 _atom_site_symmetry_multiplicity
 _atom_site_fract_x
 _atom_site_fract_y
 _atom_site_fract_z
 _atom_site_occupancy
 _atom_site_charge
Ho  Ho1  1  0.97166000  0.89545000  0.55802000  1.0 1.9803730256
Ho  Ho2  1  0.02834000  0.10455000  0.05802000  1.0 1.9803730256
Ho  Ho3  1  0.02834000  0.10455000  0.44198000  1.0 1.9803730256
Ho  Ho4  1  0.97166000  0.89545000  0.94198000  1.0 1.9803730256
Ho  Ho5  1  0.52834000  0.39545000  0.44198000  1.0 1.9803730256
Ho  Ho6  1  0.47166000  0.60455000  0.94198000  1.0 1.9803730256
Ho  Ho7  1  0.47166000  0.60455000  0.55802000  1.0 1.9803730256
Ho  Ho8  1  0.52834000  0.39545000  0.05802000  1.0 1.9803730256
H  H1  1  0.25200000  0.07440000  0.62110000  1.0 0.1415086489
H  H2  1  0.32400000  0.17210000  0.60100000  1.0 0.1554063267
H  H3  1  0.38400000  0.77200000  0.69800000  1.0 0.1499957673
H  H4  1  0.48200000  0.03900000  0.53790000  1.0 0.1012560359
H  H5  1  0.51800000  0.02600000  0.65170000  1.0 0.1277456979
H  H6  1  0.74800000  0.92560000  0.12110000  1.0 0.1415086489
H  H7  1  0.67600000  0.82790000  0.10100000  1.0 0.1554063267
H  H8  1  0.61600000  0.22800000  0.19800000  1.0 0.1499957673
H  H9  1  0.51800000  0.96100000  0.03790000  1.0 0.1012560359
H  H10  1  0.48200000  0.97400000  0.15170000  1.0 0.1277456979
H  H11  1  0.74800000  0.92560000  0.37890000  1.0 0.1415086489
H  H12  1  0.67600000  0.82790000  0.39900000  1.0 0.1554063267
H  H13  1  0.61600000  0.22800000  0.30200000  1.0 0.1499957673
H  H14  1  0.51800000  0.96100000  0.46210000  1.0 0.1012560359
H  H15  1  0.48200000  0.97400000  0.34830000  1.0 0.1277456979
H  H16  1  0.25200000  0.07440000  0.87890000  1.0 0.1415086489
H  H17  1  0.32400000  0.17210000  0.89900000  1.0 0.1554063267
H  H18  1  0.38400000  0.77200000  0.80200000  1.0 0.1499957673
H  H19  1  0.48200000  0.03900000  0.96210000  1.0 0.1012560359
H  H20  1  0.51800000  0.02600000  0.84830000  1.0 0.1277456979
H  H21  1  0.24800000  0.57440000  0.37890000  1.0 0.1415086489
H  H22  1  0.17600000  0.67210000  0.39900000  1.0 0.1554063267
H  H23  1  0.11600000  0.27200000  0.30200000  1.0 0.1499957673
H  H24  1  0.01800000  0.53900000  0.46210000  1.0 0.1012560359
H  H25  1  0.98200000  0.52600000  0.34830000  1.0 0.1277456979
H  H26  1  0.75200000  0.42560000  0.87890000  1.0 0.1415086489
H  H27  1  0.82400000  0.32790000  0.89900000  1.0 0.1554063267
H  H28  1  0.88400000  0.72800000  0.80200000  1.0 0.1499957673
H  H29  1  0.98200000  0.46100000  0.96210000  1.0 0.1012560359
H  H30  1  0.01800000  0.47400000  0.84830000  1.0 0.1277456979
H  H31  1  0.75200000  0.42560000  0.62110000  1.0 0.1415086489
H  H32  1  0.82400000  0.32790000  0.60100000  1.0 0.1554063267
H  H33  1  0.88400000  0.72800000  0.69800000  1.0 0.1499957673
H  H34  1  0.98200000  0.46100000  0.53790000  1.0 0.1012560359
H  H35  1  0.01800000  0.47400000  0.65170000  1.0 0.1277456979
H  H36  1  0.24800000  0.57440000  0.12110000  1.0 0.1415086489
H  H37  1  0.17600000  0.67210000  0.10100000  1.0 0.1554063267
H  H38  1  0.11600000  0.27200000  0.19800000  1.0 0.1499957673
H  H39  1  0.01800000  0.53900000  0.03790000  1.0 0.1012560359
H  H40  1  0.98200000  0.52600000  0.15170000  1.0 0.1277456979
C  C1  1  0.20000000  0.10400000  0.54310000  1.0 0.6783208556
C  C2  1  0.13900000  0.88390000  0.65250000  1.0 0.5202824331
C  C3  1  0.30100000  0.10620000  0.59100000  1.0 -0.3475019254
C  C4  1  0.69400000  0.97240000  0.59610000  1.0 0.6002197496
C  C5  1  0.45600000  0.05000000  0.57360000  1.0 0.0151025548
C  C6  1  0.21500000  0.86400000  0.70400000  1.0 0.0552312887
C  C7  1  0.54500000  0.01900000  0.61580000  1.0 -0.2407728092
C  C8  1  0.31900000  0.80700000  0.72000000  1.0 -0.1527398296
C  C9  1  0.80000000  0.89600000  0.04310000  1.0 0.6783208556
C  C10  1  0.86100000  0.11610000  0.15250000  1.0 0.5202824331
C  C11  1  0.69900000  0.89380000  0.09100000  1.0 -0.3475019254
C  C12  1  0.30600000  0.02760000  0.09610000  1.0 0.6002197496
C  C13  1  0.54400000  0.95000000  0.07360000  1.0 0.013852515
C  C14  1  0.78500000  0.13600000  0.20400000  1.0 0.0552312887
C  C15  1  0.45500000  0.98100000  0.11580000  1.0 -0.2407728092
C  C16  1  0.68100000  0.19300000  0.22000000  1.0 -0.1527398296
C  C17  1  0.80000000  0.89600000  0.45690000  1.0 0.6783208556
C  C18  1  0.86100000  0.11610000  0.34750000  1.0 0.5202824331
C  C19  1  0.69900000  0.89380000  0.40900000  1.0 -0.3475019254
C  C20  1  0.30600000  0.02760000  0.40390000  1.0 0.6002197496
C  C21  1  0.54400000  0.95000000  0.42640000  1.0 0.013852515
C  C22  1  0.78500000  0.13600000  0.29600000  1.0 0.0552312887
C  C23  1  0.45500000  0.98100000  0.38420000  1.0 -0.2407728092
C  C24  1  0.68100000  0.19300000  0.28000000  1.0 -0.1527398296
C  C25  1  0.20000000  0.10400000  0.95690000  1.0 0.6783208556
C  C26  1  0.13900000  0.88390000  0.84750000  1.0 0.5202824331
C  C27  1  0.30100000  0.10620000  0.90900000  1.0 -0.3475019254
C  C28  1  0.69400000  0.97240000  0.90390000  1.0 0.6002197496
C  C29  1  0.45600000  0.05000000  0.92640000  1.0 0.0151025548
C  C30  1  0.21500000  0.86400000  0.79600000  1.0 0.0552312887
C  C31  1  0.54500000  0.01900000  0.88420000  1.0 -0.2407728092
C  C32  1  0.31900000  0.80700000  0.78000000  1.0 -0.1527398296
C  C33  1  0.30000000  0.60400000  0.45690000  1.0 0.6783208556
C  C34  1  0.36100000  0.38390000  0.34750000  1.0 0.5202824331
C  C35  1  0.19900000  0.60620000  0.40900000  1.0 -0.3475019254
C  C36  1  0.80600000  0.47240000  0.40390000  1.0 0.6002197496
C  C37  1  0.04400000  0.55000000  0.42640000  1.0 0.013852515
C  C38  1  0.28500000  0.36400000  0.29600000  1.0 0.0552312887
C  C39  1  0.95500000  0.51900000  0.38420000  1.0 -0.2407728092
C  C40  1  0.18100000  0.30700000  0.28000000  1.0 -0.1527398296
C  C41  1  0.70000000  0.39600000  0.95690000  1.0 0.6783208556
C  C42  1  0.63900000  0.61610000  0.84750000  1.0 0.5202824331
C  C43  1  0.80100000  0.39380000  0.90900000  1.0 -0.3475019254
C  C44  1  0.19400000  0.52760000  0.90390000  1.0 0.6002197496
C  C45  1  0.95600000  0.45000000  0.92640000  1.0 0.0151025548
C  C46  1  0.71500000  0.63600000  0.79600000  1.0 0.0552312887
C  C47  1  0.04500000  0.48100000  0.88420000  1.0 -0.2407728092
C  C48  1  0.81900000  0.69300000  0.78000000  1.0 -0.1527398296
C  C49  1  0.70000000  0.39600000  0.54310000  1.0 0.6783208556
C  C50  1  0.63900000  0.61610000  0.65250000  1.0 0.5202824331
C  C51  1  0.80100000  0.39380000  0.59100000  1.0 -0.3475019254
C  C52  1  0.19400000  0.52760000  0.59610000  1.0 0.6002197496
C  C53  1  0.95600000  0.45000000  0.57360000  1.0 0.0151025548
C  C54  1  0.71500000  0.63600000  0.70400000  1.0 0.0552312887
C  C55  1  0.04500000  0.48100000  0.61580000  1.0 -0.2407728092
C  C56  1  0.81900000  0.69300000  0.72000000  1.0 -0.1527398296
C  C57  1  0.30000000  0.60400000  0.04310000  1.0 0.6783208556
C  C58  1  0.36100000  0.38390000  0.15250000  1.0 0.5202824331
C  C59  1  0.19900000  0.60620000  0.09100000  1.0 -0.3475019254
C  C60  1  0.80600000  0.47240000  0.09610000  1.0 0.6002197496
C  C61  1  0.04400000  0.55000000  0.07360000  1.0 0.013852515
C  C62  1  0.28500000  0.36400000  0.20400000  1.0 0.0552312887
C  C63  1  0.95500000  0.51900000  0.11580000  1.0 -0.2407728092
C  C64  1  0.18100000  0.30700000  0.22000000  1.0 -0.1527398296
O  O1  1  0.20390000  0.86000000  0.60830000  1.0 -0.6272621297
O  O2  1  0.21000000  0.16530000  0.50780000  1.0 -0.5898690515
O  O3  1  0.71060000  0.88540000  0.60060000  1.0 -0.5801152879
O  O4  1  0.10750000  0.03260000  0.53510000  1.0 -0.7590945356
O  O5  1  0.00900000  0.92180000  0.65120000  1.0 -0.5898690515
O  O6  1  0.79820000  0.02320000  0.57610000  1.0 -0.6221806698
O  O7  1  0.79610000  0.14000000  0.10830000  1.0 -0.6272621297
O  O8  1  0.79000000  0.83470000  0.00780000  1.0 -0.5898690515
O  O9  1  0.28940000  0.11460000  0.10060000  1.0 -0.5801152879
O  O10  1  0.89250000  0.96740000  0.03510000  1.0 -0.7590945356
O  O11  1  0.99100000  0.07820000  0.15120000  1.0 -0.5898690515
O  O12  1  0.20180000  0.97680000  0.07610000  1.0 -0.6221806698
O  O13  1  0.79610000  0.14000000  0.39170000  1.0 -0.6272621297
O  O14  1  0.79000000  0.83470000  0.49220000  1.0 -0.5898690515
O  O15  1  0.28940000  0.11460000  0.39940000  1.0 -0.5801152879
O  O16  1  0.89250000  0.96740000  0.46490000  1.0 -0.7590945356
O  O17  1  0.99100000  0.07820000  0.34880000  1.0 -0.5898690515
O  O18  1  0.20180000  0.97680000  0.42390000  1.0 -0.6221806698
O  O19  1  0.20390000  0.86000000  0.89170000  1.0 -0.6272621297
O  O20  1  0.21000000  0.16530000  0.99220000  1.0 -0.5898690515
O  O21  1  0.71060000  0.88540000  0.89940000  1.0 -0.5801152879
O  O22  1  0.10750000  0.03260000  0.96490000  1.0 -0.7590945356
O  O23  1  0.00900000  0.92180000  0.84880000  1.0 -0.5898690515
O  O24  1  0.79820000  0.02320000  0.92390000  1.0 -0.6221806698
O  O25  1  0.13600000  0.88800000  0.75000000  1.0 -0.0308241479
O  O26  1  0.86400000  0.11200000  0.25000000  1.0 -0.0308241479
O  O27  1  0.29610000  0.36000000  0.39170000  1.0 -0.6272621297
O  O28  1  0.29000000  0.66530000  0.49220000  1.0 -0.5898690515
O  O29  1  0.78940000  0.38540000  0.39940000  1.0 -0.5801152879
O  O30  1  0.39250000  0.53260000  0.46490000  1.0 -0.7590945356
O  O31  1  0.49100000  0.42180000  0.34880000  1.0 -0.5898690515
O  O32  1  0.70180000  0.52320000  0.42390000  1.0 -0.6221806698
O  O33  1  0.70390000  0.64000000  0.89170000  1.0 -0.6272621297
O  O34  1  0.71000000  0.33470000  0.99220000  1.0 -0.5898690515
O  O35  1  0.21060000  0.61460000  0.89940000  1.0 -0.5801152879
O  O36  1  0.60750000  0.46740000  0.96490000  1.0 -0.7590945356
O  O37  1  0.50900000  0.57820000  0.84880000  1.0 -0.5898690515
O  O38  1  0.29820000  0.47680000  0.92390000  1.0 -0.6221806698
O  O39  1  0.70390000  0.64000000  0.60830000  1.0 -0.6272621297
O  O40  1  0.71000000  0.33470000  0.50780000  1.0 -0.5898690515
O  O41  1  0.21060000  0.61460000  0.60060000  1.0 -0.5801152879
O  O42  1  0.60750000  0.46740000  0.53510000  1.0 -0.7590945356
O  O43  1  0.50900000  0.57820000  0.65120000  1.0 -0.5898690515
O  O44  1  0.29820000  0.47680000  0.57610000  1.0 -0.6221806698
O  O45  1  0.29610000  0.36000000  0.10830000  1.0 -0.6272621297
O  O46  1  0.29000000  0.66530000  0.00780000  1.0 -0.5898690515
O  O47  1  0.78940000  0.38540000  0.10060000  1.0 -0.5801152879
O  O48  1  0.39250000  0.53260000  0.03510000  1.0 -0.7590945356
O  O49  1  0.49100000  0.42180000  0.15120000  1.0 -0.5898690515
O  O50  1  0.70180000  0.52320000  0.07610000  1.0 -0.6221806698
O  O51  1  0.36400000  0.38800000  0.25000000  1.0 -0.0308241479
O  O52  1  0.63600000  0.61200000  0.75000000  1.0 -0.0308241479
