# DDEC6 charges by PACMAN v1.1 (https://github.com/mtap-research/PACMAN-charge/)
data_XODNUB_ASR_pacman
_symmetry_space_group_name_H-M   'P 1'
_cell_length_a   12.77450000
_cell_length_b   14.18000000
_cell_length_c   14.52210000
_cell_angle_alpha   70.86000000
_cell_angle_beta   88.15800000
_cell_angle_gamma   73.63000000
_symmetry_Int_Tables_number   1
_chemical_formula_structural   Ag3H12C17N2(O2F3)2
_chemical_formula_sum   'Ag12 H48 C68 N8 O16 F24'
_cell_volume   2379.13117128
_cell_formula_units_Z   4
loop_
 _symmetry_equiv_pos_site_id
 _symmetry_equiv_pos_as_xyz
  1  'x, y, z'
loop_
 _atom_site_type_symbol
 _atom_site_label
 _atom_site_symmetry_multiplicity
 _atom_site_fract_x
 _atom_site_fract_y
 _atom_site_fract_z
 _atom_site_occupancy
 _atom_site_charge
Ag  Ag1  1  0.37988000  0.05603000  0.49197000  1.0 0.426194296
Ag  Ag2  1  0.62012000  0.94397000  0.50803000  1.0 0.426194296
Ag  Ag3  1  0.53186000  0.16799000  0.38838000  1.0 0.3624027826
Ag  Ag4  1  0.46814000  0.83201000  0.61162000  1.0 0.3624027826
Ag  Ag5  1  0.39156000  0.24513000  0.52962000  1.0 0.4854844071
Ag  Ag6  1  0.60844000  0.75487000  0.47038000  1.0 0.4839711047
Ag  Ag7  1  0.57722000  0.31241000  0.58097000  1.0 0.2911636837
Ag  Ag8  1  0.42278000  0.68759000  0.41903000  1.0 0.2911636837
Ag  Ag9  1  0.42533000  0.38704000  0.71152000  1.0 0.4664099671
Ag  Ag10  1  0.57467000  0.61296000  0.28848000  1.0 0.4664099671
Ag  Ag11  1  0.54114000  0.53144000  0.60851000  1.0 0.4419008352
Ag  Ag12  1  0.45886000  0.46856000  0.39149000  1.0 0.4419008352
H  H1  1  0.46936000  0.15626000  0.75354000  1.0 0.0901845115
H  H2  1  0.53064000  0.84374000  0.24646000  1.0 0.0901845115
H  H3  1  0.52129000  0.09644000  0.93233000  1.0 0.1000682942
H  H4  1  0.47871000  0.90356000  0.06767000  1.0 0.1000682942
H  H5  1  0.67006000  0.93177000  0.00910000  1.0 0.1000682942
H  H6  1  0.32994000  0.06823000  0.99090000  1.0 0.1000682942
H  H7  1  0.78042000  0.83514000  0.90413000  1.0 0.1000682942
H  H8  1  0.21958000  0.16486000  0.09587000  1.0 0.1000682942
H  H9  1  0.73386000  0.89899000  0.72409000  1.0 0.1085481339
H  H10  1  0.26614000  0.10101000  0.27591000  1.0 0.1085481339
H  H11  1  0.21903000  0.54832000  0.34134000  1.0 0.1085481339
H  H12  1  0.78097000  0.45168000  0.65866000  1.0 0.1085481339
H  H13  1  0.02482000  0.65663000  0.30128000  1.0 0.1000682942
H  H14  1  0.97518000  0.34337000  0.69872000  1.0 0.1000682942
H  H15  1  0.90472000  0.68611000  0.43456000  1.0 0.1000682942
H  H16  1  0.09528000  0.31389000  0.56544000  1.0 0.1000682942
H  H17  1  0.98183000  0.61034000  0.60891000  1.0 0.0901845115
H  H18  1  0.01817000  0.38966000  0.39109000  1.0 0.0901845115
H  H19  1  0.17515000  0.50121000  0.65027000  1.0 0.1085481339
H  H20  1  0.82485000  0.49879000  0.34973000  1.0 0.1085481339
H  H21  1  0.79733000  0.26246000  0.46390000  1.0 0.1000682942
H  H22  1  0.20267000  0.73754000  0.53610000  1.0 0.1000682942
H  H23  1  0.75554000  0.13985000  0.76664000  1.0 0.1185771309
H  H24  1  0.24446000  0.86015000  0.23336000  1.0 0.1185771309
H  H25  1  0.96573000  0.04637000  0.73062000  1.0 0.1299317114
H  H26  1  0.03427000  0.95363000  0.26938000  1.0 0.1299317114
H  H27  1  0.07616000  0.13882000  0.55993000  1.0 0.1000682942
H  H28  1  0.92384000  0.86118000  0.44007000  1.0 0.1000682942
H  H29  1  0.99060000  0.17850000  0.45166000  1.0 0.0901845115
H  H30  1  0.00940000  0.82150000  0.54834000  1.0 0.0901845115
H  H31  1  0.05794000  0.95707000  0.60345000  1.0 0.0901845115
H  H32  1  0.94206000  0.04293000  0.39655000  1.0 0.0901845115
H  H33  1  0.12170000  0.99877000  0.49358000  1.0 0.1000682942
H  H34  1  0.87830000  0.00123000  0.50642000  1.0 0.1000682942
H  H35  1  0.58661000  0.09431000  0.19043000  1.0 0.1085481339
H  H36  1  0.41339000  0.90569000  0.80957000  1.0 0.1085481339
H  H37  1  0.50873000  0.23392000  0.00607000  1.0 0.1299317114
H  H38  1  0.49127000  0.76608000  0.99393000  1.0 0.1299317114
H  H39  1  0.39973000  0.38289000  0.21704000  1.0 0.1185771309
H  H40  1  0.60027000  0.61711000  0.78296000  1.0 0.1185771309
H  H41  1  0.32182000  0.48247000  0.04518000  1.0 0.1000682942
H  H42  1  0.67818000  0.51753000  0.95482000  1.0 0.1000682942
H  H43  1  0.34008000  0.41672000  0.95707000  1.0 0.1085481339
H  H44  1  0.65992000  0.58328000  0.04293000  1.0 0.1085481339
H  H45  1  0.42108000  0.56315000  0.90836000  1.0 0.0901845115
H  H46  1  0.57892000  0.43685000  0.09164000  1.0 0.0901845115
H  H47  1  0.52195000  0.44332000  0.92427000  1.0 0.0901845115
H  H48  1  0.47805000  0.55668000  0.07573000  1.0 0.0901845115
C  C1  1  0.54569000  0.10356000  0.53664000  1.0 -0.5325911187
C  C2  1  0.45431000  0.89644000  0.46336000  1.0 -0.5325911187
C  C3  1  0.57149000  0.06620000  0.62663000  1.0 0.0610684499
C  C4  1  0.42851000  0.93380000  0.37337000  1.0 0.0610684499
C  C5  1  0.59795000  0.03000000  0.72856000  1.0 0.1085481339
C  C6  1  0.40205000  0.97000000  0.27144000  1.0 0.1000682942
C  C7  1  0.53764000  0.08597000  0.78727000  1.0 -0.1059907686
C  C8  1  0.46236000  0.91403000  0.21273000  1.0 -0.1059907686
C  C9  1  0.56582000  0.05131000  0.88729000  1.0 -0.0810349398
C  C10  1  0.43418000  0.94869000  0.11271000  1.0 -0.0810349398
C  C11  1  0.65107000  0.96000000  0.92989000  1.0 -0.0810349398
C  C12  1  0.34893000  0.04000000  0.07011000  1.0 -0.0810349398
C  C13  1  0.71203000  0.90531000  0.87151000  1.0 -0.0810349398
C  C14  1  0.28797000  0.09469000  0.12849000  1.0 -0.0810349398
C  C15  1  0.68648000  0.94022000  0.77104000  1.0 -0.099890263
C  C16  1  0.31352000  0.05978000  0.22896000  1.0 -0.099890263
C  C17  1  0.41534000  0.39908000  0.55299000  1.0 -0.5407535576
C  C18  1  0.58466000  0.60092000  0.44701000  1.0 -0.5407535576
C  C19  1  0.31992000  0.45710000  0.52184000  1.0 0.0496996444
C  C20  1  0.68008000  0.54290000  0.47816000  1.0 0.0496996444
C  C21  1  0.20895000  0.51820000  0.49812000  1.0 0.1000682942
C  C22  1  0.79105000  0.48180000  0.50188000  1.0 0.1000682942
C  C23  1  0.16654000  0.56218000  0.39971000  1.0 -0.099890263
C  C24  1  0.83346000  0.43782000  0.60029000  1.0 -0.099890263
C  C25  1  0.05761000  0.62263000  0.37765000  1.0 -0.0810349398
C  C26  1  0.94239000  0.37737000  0.62235000  1.0 -0.0810349398
C  C27  1  0.99086000  0.63964000  0.45272000  1.0 -0.0577790879
C  C28  1  0.00914000  0.36036000  0.54728000  1.0 -0.0577790879
C  C29  1  0.03328000  0.59660000  0.55023000  1.0 -0.0810349398
C  C30  1  0.96672000  0.40340000  0.44977000  1.0 -0.0810349398
C  C31  1  0.14176000  0.53542000  0.57382000  1.0 -0.1059907686
C  C32  1  0.85824000  0.46458000  0.42618000  1.0 -0.1059907686
C  C33  1  0.81291000  0.21763000  0.54069000  1.0 0.1000682942
C  C34  1  0.18709000  0.78237000  0.45931000  1.0 0.1000682942
C  C35  1  0.79510000  0.15247000  0.69787000  1.0 -0.0262975946
C  C36  1  0.20490000  0.84753000  0.30213000  1.0 -0.0262975946
C  C37  1  0.89993000  0.10517000  0.68055000  1.0 -0.099890263
C  C38  1  0.10007000  0.89483000  0.31945000  1.0 -0.099890263
C  C39  1  0.00892000  0.12335000  0.52722000  1.0 -0.0540078648
C  C40  1  0.99108000  0.87665000  0.47278000  1.0 -0.0540078648
C  C41  1  0.04237000  0.01133000  0.52735000  1.0 -0.1643254526
C  C42  1  0.95763000  0.98867000  0.47265000  1.0 -0.1643254526
C  C43  1  0.53680000  0.17497000  0.16910000  1.0 -0.023849183
C  C44  1  0.46320000  0.82503000  0.83090000  1.0 -0.023849183
C  C45  1  0.49694000  0.24301000  0.07743000  1.0 -0.099890263
C  C46  1  0.50306000  0.75699000  0.92257000  1.0 -0.099890263
C  C47  1  0.44059000  0.32269000  0.18646000  1.0 0.0901845115
C  C48  1  0.55941000  0.67731000  0.81354000  1.0 0.0901845115
C  C49  1  0.38308000  0.43370000  0.01168000  1.0 -0.0540078648
C  C50  1  0.61692000  0.56630000  0.98832000  1.0 -0.0540078648
C  C51  1  0.46678000  0.48968000  0.96368000  1.0 -0.1691101633
C  C52  1  0.53322000  0.51032000  0.03632000  1.0 -0.1691101633
C  C53  1  0.23502000  0.27657000  0.35212000  1.0 0.4096829849
C  C54  1  0.76498000  0.72343000  0.64788000  1.0 0.4096829849
C  C55  1  0.16006000  0.33828000  0.25576000  1.0 0.5701322414
C  C56  1  0.83994000  0.66172000  0.74424000  1.0 0.5701322414
C  C57  1  0.26272000  0.10347000  0.67792000  1.0 0.4182227112
C  C58  1  0.73728000  0.89653000  0.32208000  1.0 0.4182227112
C  C59  1  0.20177000  0.07263000  0.77355000  1.0 0.5785678582
C  C60  1  0.79823000  0.92737000  0.22645000  1.0 0.5785678582
C  C61  1  0.32891000  0.61705000  0.71133000  1.0 0.4096829849
C  C62  1  0.67109000  0.38295000  0.28867000  1.0 0.4096829849
C  C63  1  0.24217000  0.70645000  0.73692000  1.0 0.5785678582
C  C64  1  0.75783000  0.29355000  0.26308000  1.0 0.5785678582
C  C65  1  0.64270000  0.35154000  0.81247000  1.0 0.4096829849
C  C66  1  0.35730000  0.64846000  0.18753000  1.0 0.4096829849
C  C67  1  0.74347000  0.29347000  0.88838000  1.0 0.5785678582
C  C68  1  0.25653000  0.70653000  0.11162000  1.0 0.5785678582
N  N1  1  0.74080000  0.22301000  0.60973000  1.0 -0.2230676629
N  N2  1  0.25920000  0.77699000  0.39027000  1.0 -0.2230676629
N  N3  1  0.91056000  0.14740000  0.58073000  1.0 0.0389668222
N  N4  1  0.08944000  0.85260000  0.41927000  1.0 0.0389668222
N  N5  1  0.50144000  0.22553000  0.23700000  1.0 -0.2417110645
N  N6  1  0.49856000  0.77447000  0.76300000  1.0 -0.2417110645
N  N7  1  0.43512000  0.33572000  0.08938000  1.0 0.0389668222
N  N8  1  0.56488000  0.66428000  0.91062000  1.0 0.0389668222
O  O1  1  0.28825000  0.32742000  0.37814000  1.0 -0.5076486908
O  O2  1  0.71175000  0.67258000  0.62186000  1.0 -0.5076486908
O  O3  1  0.23328000  0.18280000  0.38966000  1.0 -0.4864572428
O  O4  1  0.76672000  0.81720000  0.61034000  1.0 -0.4864572428
O  O5  1  0.27710000  0.19295000  0.65558000  1.0 -0.5076486908
O  O6  1  0.72290000  0.80705000  0.34442000  1.0 -0.5076486908
O  O7  1  0.29068000  0.03399000  0.63811000  1.0 -0.5014875077
O  O8  1  0.70932000  0.96601000  0.36189000  1.0 -0.5014875077
O  O9  1  0.38907000  0.64754000  0.64315000  1.0 -0.5173172794
O  O10  1  0.61093000  0.35246000  0.35685000  1.0 -0.5173172794
O  O11  1  0.32538000  0.52634000  0.76039000  1.0 -0.4864572428
O  O12  1  0.67462000  0.47366000  0.23961000  1.0 -0.4864572428
O  O13  1  0.64366000  0.44163000  0.75771000  1.0 -0.4832739226
O  O14  1  0.35634000  0.55837000  0.24229000  1.0 -0.4832739226
O  O15  1  0.57260000  0.30202000  0.81834000  1.0 -0.4832739226
O  O16  1  0.42740000  0.69798000  0.18166000  1.0 -0.4832739226
F  F1  1  0.13777000  0.44403000  0.23186000  1.0 -0.2009356627
F  F2  1  0.86223000  0.55597000  0.76814000  1.0 -0.2009356627
F  F3  1  0.06193000  0.31553000  0.26187000  1.0 -0.2009356627
F  F4  1  0.93807000  0.68447000  0.73813000  1.0 -0.2009356627
F  F5  1  0.20985000  0.31217000  0.17798000  1.0 -0.2064494371
F  F6  1  0.79015000  0.68783000  0.82202000  1.0 -0.2064494371
F  F7  1  0.16151000  0.99023000  0.78245000  1.0 -0.2009356627
F  F8  1  0.83849000  0.00977000  0.21755000  1.0 -0.2009356627
F  F9  1  0.27358000  0.04244000  0.85431000  1.0 -0.2009356627
F  F10  1  0.72642000  0.95756000  0.14569000  1.0 -0.2009356627
F  F11  1  0.11602000  0.15382000  0.77989000  1.0 -0.2009356627
F  F12  1  0.88398000  0.84618000  0.22011000  1.0 -0.2064494371
F  F13  1  0.25125000  0.69532000  0.83377000  1.0 -0.1916156851
F  F14  1  0.74875000  0.30468000  0.16623000  1.0 -0.1916156851
F  F15  1  0.24919000  0.80404000  0.68381000  1.0 -0.2009356627
F  F16  1  0.75081000  0.19596000  0.31619000  1.0 -0.2064494371
F  F17  1  0.13818000  0.70433000  0.71658000  1.0 -0.2009356627
F  F18  1  0.86182000  0.29567000  0.28342000  1.0 -0.2009356627
F  F19  1  0.83999000  0.30482000  0.84877000  1.0 -0.2009356627
F  F20  1  0.16001000  0.69518000  0.15123000  1.0 -0.2009356627
F  F21  1  0.75424000  0.18945000  0.92933000  1.0 -0.2009356627
F  F22  1  0.24576000  0.81055000  0.07067000  1.0 -0.2009356627
F  F23  1  0.73080000  0.33610000  0.96248000  1.0 -0.2009356627
F  F24  1  0.26920000  0.66390000  0.03752000  1.0 -0.2009356627
