# DDEC6 charges by PACMAN v1.1 (https://github.com/mtap-research/PACMAN-charge/)
data_XODNAI_ASR_pacman
_symmetry_space_group_name_H-M   'P 1'
_cell_length_a   8.59990000
_cell_length_b   13.85060000
_cell_length_c   24.96620000
_cell_angle_alpha   90.00000000
_cell_angle_beta   90.00000000
_cell_angle_gamma   90.00000000
_symmetry_Int_Tables_number   1
_chemical_formula_structural   Er2H4C20O13
_chemical_formula_sum   'Er8 H16 C80 O52'
_cell_volume   2973.81832791
_cell_formula_units_Z   4
loop_
 _symmetry_equiv_pos_site_id
 _symmetry_equiv_pos_as_xyz
  1  'x, y, z'
loop_
 _atom_site_type_symbol
 _atom_site_label
 _atom_site_symmetry_multiplicity
 _atom_site_fract_x
 _atom_site_fract_y
 _atom_site_fract_z
 _atom_site_occupancy
 _atom_site_charge
Er  Er1  1  0.46863000  0.10333000  0.55876000  1.0 1.9581624098
Er  Er2  1  0.53137000  0.89667000  0.05876000  1.0 1.9581624098
Er  Er3  1  0.53137000  0.89667000  0.44124000  1.0 1.9581624098
Er  Er4  1  0.46863000  0.10333000  0.94124000  1.0 1.9581624098
Er  Er5  1  0.03137000  0.60333000  0.44124000  1.0 1.9581624098
Er  Er6  1  0.96863000  0.39667000  0.94124000  1.0 1.9581624098
Er  Er7  1  0.96863000  0.39667000  0.55876000  1.0 1.9581624098
Er  Er8  1  0.03137000  0.60333000  0.05876000  1.0 1.9581624098
H  H1  1  0.88850000  0.22470000  0.69870000  1.0 0.1386447563
H  H2  1  0.23400000  0.09600000  0.38400000  1.0 0.1386447563
H  H3  1  0.11150000  0.77530000  0.19870000  1.0 0.1386447563
H  H4  1  0.76600000  0.90400000  0.88400000  1.0 0.1386447563
H  H5  1  0.11150000  0.77530000  0.30130000  1.0 0.1386447563
H  H6  1  0.76600000  0.90400000  0.61600000  1.0 0.1386447563
H  H7  1  0.88850000  0.22470000  0.80130000  1.0 0.1386447563
H  H8  1  0.23400000  0.09600000  0.11600000  1.0 0.1386447563
H  H9  1  0.61150000  0.72470000  0.30130000  1.0 0.1386447563
H  H10  1  0.26600000  0.59600000  0.61600000  1.0 0.1386447563
H  H11  1  0.38850000  0.27530000  0.80130000  1.0 0.1386447563
H  H12  1  0.73400000  0.40400000  0.11600000  1.0 0.1386447563
H  H13  1  0.38850000  0.27530000  0.69870000  1.0 0.1386447563
H  H14  1  0.73400000  0.40400000  0.38400000  1.0 0.1386447563
H  H15  1  0.61150000  0.72470000  0.19870000  1.0 0.1386447563
H  H16  1  0.26600000  0.59600000  0.88400000  1.0 0.1386447563
C  C1  1  0.30440000  0.10420000  0.45650000  1.0 0.6421199717
C  C2  1  0.63220000  0.11500000  0.65350000  1.0 0.5159745343
C  C3  1  0.20000000  0.11450000  0.40870000  1.0 -0.1362870619
C  C4  1  0.81640000  0.97130000  0.40680000  1.0 0.5063192971
C  C5  1  0.70190000  0.13850000  0.70510000  1.0 0.065383853
C  C6  1  0.81860000  0.19240000  0.72070000  1.0 -0.1758244023
C  C7  1  0.99750000  0.00010000  0.40660000  1.0 0.007053414
C  C8  1  0.02960000  0.10660000  0.41170000  1.0 0.0386562769
C  C9  1  0.05630000  0.04490000  0.42930000  1.0 0.0044365835
C  C10  1  0.94910000  0.02560000  0.38040000  1.0 0.0386562769
C  C11  1  0.69560000  0.89580000  0.95650000  1.0 0.6421199717
C  C12  1  0.36780000  0.88500000  0.15350000  1.0 0.5159745343
C  C13  1  0.80000000  0.88550000  0.90870000  1.0 -0.1362870619
C  C14  1  0.18360000  0.02870000  0.90680000  1.0 0.5047435291
C  C15  1  0.29810000  0.86150000  0.20510000  1.0 0.065383853
C  C16  1  0.18140000  0.80760000  0.22070000  1.0 -0.1758244023
C  C17  1  0.00250000  0.99990000  0.90660000  1.0 0.007053414
C  C18  1  0.97040000  0.89340000  0.91170000  1.0 0.0386562769
C  C19  1  0.94370000  0.95510000  0.92930000  1.0 0.0044365835
C  C20  1  0.05090000  0.97440000  0.88040000  1.0 0.0386562769
C  C21  1  0.69560000  0.89580000  0.54350000  1.0 0.6421199717
C  C22  1  0.36780000  0.88500000  0.34650000  1.0 0.5159745343
C  C23  1  0.80000000  0.88550000  0.59130000  1.0 -0.1362870619
C  C24  1  0.18360000  0.02870000  0.59320000  1.0 0.5047435291
C  C25  1  0.29810000  0.86150000  0.29490000  1.0 0.065383853
C  C26  1  0.18140000  0.80760000  0.27930000  1.0 -0.1758244023
C  C27  1  0.00250000  0.99990000  0.59340000  1.0 0.007053414
C  C28  1  0.97040000  0.89340000  0.58830000  1.0 0.0386562769
C  C29  1  0.94370000  0.95510000  0.57070000  1.0 0.0044365835
C  C30  1  0.05090000  0.97440000  0.61960000  1.0 0.0386562769
C  C31  1  0.30440000  0.10420000  0.04350000  1.0 0.6421199717
C  C32  1  0.63220000  0.11500000  0.84650000  1.0 0.5159745343
C  C33  1  0.20000000  0.11450000  0.09130000  1.0 -0.1362870619
C  C34  1  0.81640000  0.97130000  0.09320000  1.0 0.5063192971
C  C35  1  0.70190000  0.13850000  0.79490000  1.0 0.065383853
C  C36  1  0.81860000  0.19240000  0.77930000  1.0 -0.1758244023
C  C37  1  0.99750000  0.00010000  0.09340000  1.0 0.007053414
C  C38  1  0.02960000  0.10660000  0.08830000  1.0 0.0386562769
C  C39  1  0.05630000  0.04490000  0.07070000  1.0 0.0044365835
C  C40  1  0.94910000  0.02560000  0.11960000  1.0 0.0386562769
C  C41  1  0.19560000  0.60420000  0.54350000  1.0 0.6421199717
C  C42  1  0.86780000  0.61500000  0.34650000  1.0 0.5159745343
C  C43  1  0.30000000  0.61450000  0.59130000  1.0 -0.1362870619
C  C44  1  0.68360000  0.47130000  0.59320000  1.0 0.5047435291
C  C45  1  0.79810000  0.63850000  0.29490000  1.0 0.065383853
C  C46  1  0.68140000  0.69240000  0.27930000  1.0 -0.1758244023
C  C47  1  0.50250000  0.50010000  0.59340000  1.0 0.007053414
C  C48  1  0.47040000  0.60660000  0.58830000  1.0 0.0386562769
C  C49  1  0.44370000  0.54490000  0.57070000  1.0 0.0044365835
C  C50  1  0.55090000  0.52560000  0.61960000  1.0 0.0386562769
C  C51  1  0.80440000  0.39580000  0.04350000  1.0 0.6421199717
C  C52  1  0.13220000  0.38500000  0.84650000  1.0 0.5159745343
C  C53  1  0.70000000  0.38550000  0.09130000  1.0 -0.1362870619
C  C54  1  0.31640000  0.52870000  0.09320000  1.0 0.5047435291
C  C55  1  0.20190000  0.36150000  0.79490000  1.0 0.065383853
C  C56  1  0.31860000  0.30760000  0.77930000  1.0 -0.1758244023
C  C57  1  0.49750000  0.49990000  0.09340000  1.0 0.007053414
C  C58  1  0.52960000  0.39340000  0.08830000  1.0 0.0386562769
C  C59  1  0.55630000  0.45510000  0.07070000  1.0 0.007053414
C  C60  1  0.44910000  0.47440000  0.11960000  1.0 0.034981934
C  C61  1  0.80440000  0.39580000  0.45650000  1.0 0.6421199717
C  C62  1  0.13220000  0.38500000  0.65350000  1.0 0.5159745343
C  C63  1  0.70000000  0.38550000  0.40870000  1.0 -0.1362870619
C  C64  1  0.31640000  0.52870000  0.40680000  1.0 0.5047435291
C  C65  1  0.20190000  0.36150000  0.70510000  1.0 0.065383853
C  C66  1  0.31860000  0.30760000  0.72070000  1.0 -0.1758244023
C  C67  1  0.49750000  0.49990000  0.40660000  1.0 0.007053414
C  C68  1  0.52960000  0.39340000  0.41170000  1.0 0.0386562769
C  C69  1  0.55630000  0.45510000  0.42930000  1.0 0.0044365835
C  C70  1  0.44910000  0.47440000  0.38040000  1.0 0.034981934
C  C71  1  0.19560000  0.60420000  0.95650000  1.0 0.6421199717
C  C72  1  0.86780000  0.61500000  0.15350000  1.0 0.5159745343
C  C73  1  0.30000000  0.61450000  0.90870000  1.0 -0.1362870619
C  C74  1  0.68360000  0.47130000  0.90680000  1.0 0.5047435291
C  C75  1  0.79810000  0.63850000  0.20510000  1.0 0.065383853
C  C76  1  0.68140000  0.69240000  0.22070000  1.0 -0.1758244023
C  C77  1  0.50250000  0.50010000  0.90660000  1.0 0.007053414
C  C78  1  0.47040000  0.60660000  0.91170000  1.0 0.0386562769
C  C79  1  0.44370000  0.54490000  0.92930000  1.0 0.0044365835
C  C80  1  0.55090000  0.52560000  0.88040000  1.0 0.0386562769
O  O1  1  0.79380000  0.88280000  0.40085000  1.0 -0.5690270238
O  O2  1  0.70170000  0.13950000  0.61089000  1.0 -0.6285629146
O  O3  1  0.39440000  0.03350000  0.46284000  1.0 -0.7296878569
O  O4  1  0.29310000  0.16520000  0.49333000  1.0 -0.5816056602
O  O5  1  0.71080000  0.02360000  0.42661000  1.0 -0.6067963042
O  O6  1  0.50440000  0.07340000  0.65163000  1.0 -0.5853137397
O  O7  1  0.20620000  0.11720000  0.90085000  1.0 -0.5690270238
O  O8  1  0.29830000  0.86050000  0.11089000  1.0 -0.6285629146
O  O9  1  0.60560000  0.96650000  0.96284000  1.0 -0.7296878569
O  O10  1  0.70690000  0.83480000  0.99333000  1.0 -0.5816056602
O  O11  1  0.28920000  0.97640000  0.92661000  1.0 -0.6067963042
O  O12  1  0.49560000  0.92660000  0.15163000  1.0 -0.5853137397
O  O13  1  0.20620000  0.11720000  0.59915000  1.0 -0.5690270238
O  O14  1  0.29830000  0.86050000  0.38911000  1.0 -0.6285629146
O  O15  1  0.60560000  0.96650000  0.53716000  1.0 -0.7296878569
O  O16  1  0.70690000  0.83480000  0.50667000  1.0 -0.5816056602
O  O17  1  0.28920000  0.97640000  0.57339000  1.0 -0.6067963042
O  O18  1  0.49560000  0.92660000  0.34837000  1.0 -0.5853137397
O  O19  1  0.79380000  0.88280000  0.09915000  1.0 -0.5690270238
O  O20  1  0.70170000  0.13950000  0.88911000  1.0 -0.6285629146
O  O21  1  0.39440000  0.03350000  0.03716000  1.0 -0.7296878569
O  O22  1  0.29310000  0.16520000  0.00667000  1.0 -0.5816056602
O  O23  1  0.71080000  0.02360000  0.07339000  1.0 -0.6067963042
O  O24  1  0.50440000  0.07340000  0.84837000  1.0 -0.5853137397
O  O25  1  0.62300000  0.10750000  0.75000000  1.0 -0.0783477169
O  O26  1  0.37700000  0.89250000  0.25000000  1.0 -0.0783477169
O  O27  1  0.70620000  0.38280000  0.59915000  1.0 -0.5690270238
O  O28  1  0.79830000  0.63950000  0.38911000  1.0 -0.6285629146
O  O29  1  0.10560000  0.53350000  0.53716000  1.0 -0.7296878569
O  O30  1  0.20690000  0.66520000  0.50667000  1.0 -0.5816056602
O  O31  1  0.78920000  0.52360000  0.57339000  1.0 -0.6067963042
O  O32  1  0.99560000  0.57340000  0.34837000  1.0 -0.5853137397
O  O33  1  0.29380000  0.61720000  0.09915000  1.0 -0.5690270238
O  O34  1  0.20170000  0.36050000  0.88911000  1.0 -0.6285629146
O  O35  1  0.89440000  0.46650000  0.03716000  1.0 -0.7296878569
O  O36  1  0.79310000  0.33480000  0.00667000  1.0 -0.5816056602
O  O37  1  0.21080000  0.47640000  0.07339000  1.0 -0.6067963042
O  O38  1  0.00440000  0.42660000  0.84837000  1.0 -0.5853137397
O  O39  1  0.29380000  0.61720000  0.40085000  1.0 -0.5690270238
O  O40  1  0.20170000  0.36050000  0.61089000  1.0 -0.6285629146
O  O41  1  0.89440000  0.46650000  0.46284000  1.0 -0.7296878569
O  O42  1  0.79310000  0.33480000  0.49333000  1.0 -0.5816056602
O  O43  1  0.21080000  0.47640000  0.42661000  1.0 -0.6067963042
O  O44  1  0.00440000  0.42660000  0.65163000  1.0 -0.5853137397
O  O45  1  0.70620000  0.38280000  0.90085000  1.0 -0.5690270238
O  O46  1  0.79830000  0.63950000  0.11089000  1.0 -0.6285629146
O  O47  1  0.10560000  0.53350000  0.96284000  1.0 -0.7296878569
O  O48  1  0.20690000  0.66520000  0.99333000  1.0 -0.5816056602
O  O49  1  0.78920000  0.52360000  0.92661000  1.0 -0.6067963042
O  O50  1  0.99560000  0.57340000  0.15163000  1.0 -0.5853137397
O  O51  1  0.87700000  0.60750000  0.25000000  1.0 -0.0783477169
O  O52  1  0.12300000  0.39250000  0.75000000  1.0 -0.0783477169
