# DDEC6 charges by PACMAN v1.1 (https://github.com/mtap-research/PACMAN-charge/)
data_XODNUB_FSR_pacman
_symmetry_space_group_name_H-M   'P 1'
_cell_length_a   12.77450000
_cell_length_b   14.18000000
_cell_length_c   14.52210000
_cell_angle_alpha   109.14000000
_cell_angle_beta   88.15800000
_cell_angle_gamma   106.37000000
_symmetry_Int_Tables_number   1
_chemical_formula_structural   Ag6H24C34N4O9F14
_chemical_formula_sum   'Ag12 H48 C68 N8 O18 F28'
_cell_volume   2379.13117128
_cell_formula_units_Z   2
loop_
 _symmetry_equiv_pos_site_id
 _symmetry_equiv_pos_as_xyz
  1  'x, y, z'
loop_
 _atom_site_type_symbol
 _atom_site_label
 _atom_site_symmetry_multiplicity
 _atom_site_fract_x
 _atom_site_fract_y
 _atom_site_fract_z
 _atom_site_occupancy
 _atom_site_charge
Ag  Ag1  1  0.62257000  0.05693000  0.50846000  1.0 0.4213303177
Ag  Ag2  1  0.37743000  0.94307000  0.49154000  1.0 0.4213303177
Ag  Ag3  1  0.46778000  0.16917000  0.61170000  1.0 0.3481055497
Ag  Ag4  1  0.53222000  0.83083000  0.38830000  1.0 0.3481055497
Ag  Ag5  1  0.61071000  0.24682000  0.47134000  1.0 0.4673788248
Ag  Ag6  1  0.38929000  0.75318000  0.52866000  1.0 0.4673788248
Ag  Ag7  1  0.42256000  0.31207000  0.41923000  1.0 0.2656353264
Ag  Ag8  1  0.57744000  0.68793000  0.58077000  1.0 0.2656353264
Ag  Ag9  1  0.57632000  0.38225000  0.28357000  1.0 0.4828112571
Ag  Ag10  1  0.42368000  0.61775000  0.71643000  1.0 0.4828112571
Ag  Ag11  1  0.46142000  0.53124000  0.38816000  1.0 0.4377204327
Ag  Ag12  1  0.53858000  0.46876000  0.61184000  1.0 0.4377204327
H  H1  1  0.51780000  0.14350000  0.23980000  1.0 0.1094091912
H  H2  1  0.48220000  0.85650000  0.76020000  1.0 0.1094091912
H  H3  1  0.46830000  0.08800000  0.07510000  1.0 0.1094091912
H  H4  1  0.53170000  0.91200000  0.92490000  1.0 0.1094091912
H  H5  1  0.33640000  0.93690000  0.00300000  1.0 0.1094091912
H  H6  1  0.66360000  0.06310000  0.99700000  1.0 0.1010725802
H  H7  1  0.23080000  0.84740000  0.10050000  1.0 0.1094091912
H  H8  1  0.76920000  0.15260000  0.89950000  1.0 0.1010725802
H  H9  1  0.27460000  0.90670000  0.26770000  1.0 0.1094091912
H  H10  1  0.72540000  0.09330000  0.73230000  1.0 0.1094091912
H  H11  1  0.79090000  0.55180000  0.64890000  1.0 0.1094091912
H  H12  1  0.20910000  0.44820000  0.35110000  1.0 0.1094091912
H  H13  1  0.97060000  0.65140000  0.68480000  1.0 0.1094091912
H  H14  1  0.02940000  0.34860000  0.31520000  1.0 0.1094091912
H  H15  1  0.08020000  0.67770000  0.56240000  1.0 0.1094091912
H  H16  1  0.91980000  0.32230000  0.43760000  1.0 0.1094091912
H  H17  1  0.01260000  0.61070000  0.40220000  1.0 0.1010725802
H  H18  1  0.98740000  0.38930000  0.59780000  1.0 0.1010725802
H  H19  1  0.83080000  0.50700000  0.36300000  1.0 0.1094091912
H  H20  1  0.16920000  0.49300000  0.63700000  1.0 0.1094091912
H  H21  1  0.20130000  0.25530000  0.52340000  1.0 0.1010725802
H  H22  1  0.79870000  0.74470000  0.47660000  1.0 0.1010725802
H  H23  1  0.23490000  0.14010000  0.24410000  1.0 0.119048643
H  H24  1  0.76510000  0.85990000  0.75590000  1.0 0.119048643
H  H25  1  0.04790000  0.05550000  0.27480000  1.0 0.1306834071
H  H26  1  0.95210000  0.94450000  0.72520000  1.0 0.1306834071
H  H27  1  0.93090000  0.13610000  0.44460000  1.0 0.119048643
H  H28  1  0.06910000  0.86390000  0.55540000  1.0 0.119048643
H  H29  1  0.00570000  0.17050000  0.54010000  1.0 0.1094091912
H  H30  1  0.99430000  0.82950000  0.45990000  1.0 0.1094091912
H  H31  1  0.94530000  0.96490000  0.40610000  1.0 0.1010725802
H  H32  1  0.05470000  0.03510000  0.59390000  1.0 0.1010725802
H  H33  1  0.88850000  0.99900000  0.50380000  1.0 0.1094091912
H  H34  1  0.11150000  0.00100000  0.49620000  1.0 0.1094091912
H  H35  1  0.42310000  0.10860000  0.81620000  1.0 0.119048643
H  H36  1  0.57690000  0.89140000  0.18380000  1.0 0.119048643
H  H37  1  0.49090000  0.23230000  0.98170000  1.0 0.1306834071
H  H38  1  0.50910000  0.76770000  0.01830000  1.0 0.1306834071
H  H39  1  0.59290000  0.37240000  0.78750000  1.0 0.119048643
H  H40  1  0.40710000  0.62760000  0.21250000  1.0 0.119048643
H  H41  1  0.66960000  0.47810000  0.96040000  1.0 0.0918726436
H  H42  1  0.33040000  0.52190000  0.03960000  1.0 0.0918726436
H  H43  1  0.65300000  0.41890000  0.03630000  1.0 0.1094091912
H  H44  1  0.34700000  0.58110000  0.96370000  1.0 0.1094091912
H  H45  1  0.57280000  0.55520000  0.08480000  1.0 0.0752141959
H  H46  1  0.42720000  0.44480000  0.91520000  1.0 0.0752141959
H  H47  1  0.48500000  0.44800000  0.07030000  1.0 0.0918726436
H  H48  1  0.51500000  0.55200000  0.92970000  1.0 0.0918726436
C  C1  1  0.45330000  0.10320000  0.46240000  1.0 -0.5343465657
C  C2  1  0.54670000  0.89680000  0.53760000  1.0 -0.5392745188
C  C3  1  0.43040000  0.06740000  0.37440000  1.0 0.0387753376
C  C4  1  0.56960000  0.93260000  0.62560000  1.0 0.0387753376
C  C5  1  0.40320000  0.02960000  0.26960000  1.0 0.1094091912
C  C6  1  0.59680000  0.97040000  0.73040000  1.0 0.1094091912
C  C7  1  0.46010000  0.08380000  0.21230000  1.0 -0.1390248494
C  C8  1  0.53990000  0.91620000  0.78770000  1.0 -0.1390248494
C  C9  1  0.43120000  0.04930000  0.11310000  1.0 -0.0919640653
C  C10  1  0.56880000  0.95070000  0.88690000  1.0 -0.0919640653
C  C11  1  0.35090000  0.96140000  0.07040000  1.0 -0.0985888158
C  C12  1  0.64910000  0.03860000  0.92960000  1.0 -0.0985888158
C  C13  1  0.28890000  0.90660000  0.12870000  1.0 -0.0919640653
C  C14  1  0.71110000  0.09340000  0.87130000  1.0 -0.0919640653
C  C15  1  0.31550000  0.94180000  0.22850000  1.0 -0.1390248494
C  C16  1  0.68450000  0.05820000  0.77150000  1.0 -0.1390248494
C  C17  1  0.58590000  0.40340000  0.45060000  1.0 -0.5392745188
C  C18  1  0.41410000  0.59660000  0.54940000  1.0 -0.5392745188
C  C19  1  0.67930000  0.45630000  0.47770000  1.0 0.0387753376
C  C20  1  0.32070000  0.54370000  0.52230000  1.0 0.0387753376
C  C21  1  0.79190000  0.51870000  0.50320000  1.0 0.119048643
C  C22  1  0.20810000  0.48130000  0.49680000  1.0 0.119048643
C  C23  1  0.83480000  0.56250000  0.59880000  1.0 -0.1390248494
C  C24  1  0.16520000  0.43750000  0.40120000  1.0 -0.1390248494
C  C25  1  0.94220000  0.62210000  0.62030000  1.0 -0.0985888158
C  C26  1  0.05780000  0.37790000  0.37970000  1.0 -0.0985888158
C  C27  1  0.00740000  0.63830000  0.54690000  1.0 -0.0919640653
C  C28  1  0.99260000  0.36170000  0.45310000  1.0 -0.0919640653
C  C29  1  0.96780000  0.59760000  0.45100000  1.0 -0.0985888158
C  C30  1  0.03220000  0.40240000  0.54900000  1.0 -0.0985888158
C  C31  1  0.85880000  0.53610000  0.42770000  1.0 -0.1390248494
C  C32  1  0.14120000  0.46390000  0.57230000  1.0 -0.1390248494
C  C33  1  0.18600000  0.21640000  0.45750000  1.0 0.1094091912
C  C34  1  0.81400000  0.78360000  0.54250000  1.0 0.1094091912
C  C35  1  0.20450000  0.15300000  0.30440000  1.0 -0.020620487
C  C36  1  0.79550000  0.84700000  0.69560000  1.0 -0.020620487
C  C37  1  0.10090000  0.10630000  0.32110000  1.0 -0.0985888158
C  C38  1  0.89910000  0.89370000  0.67890000  1.0 -0.0919640653
C  C39  1  0.99110000  0.12360000  0.47310000  1.0 -0.1166718603
C  C40  1  0.00890000  0.87640000  0.52690000  1.0 -0.1166718603
C  C41  1  0.95720000  0.01190000  0.47310000  1.0 -0.1908549072
C  C42  1  0.04280000  0.98810000  0.52690000  1.0 -0.1908549072
C  C43  1  0.46560000  0.17740000  0.83090000  1.0 -0.020620487
C  C44  1  0.53440000  0.82260000  0.16910000  1.0 -0.020620487
C  C45  1  0.50380000  0.24510000  0.92290000  1.0 -0.0919640653
C  C46  1  0.49620000  0.75490000  0.07710000  1.0 -0.0919640653
C  C47  1  0.55920000  0.32170000  0.81500000  1.0 0.0918726436
C  C48  1  0.44080000  0.67830000  0.18500000  1.0 0.0918726436
C  C49  1  0.61550000  0.43320000  0.98760000  1.0 -0.1299256516
C  C50  1  0.38450000  0.56680000  0.01240000  1.0 -0.1299256516
C  C51  1  0.53400000  0.48940000  0.03650000  1.0 -0.2085187139
C  C52  1  0.46600000  0.51060000  0.96350000  1.0 -0.2085187139
C  C53  1  0.76450000  0.27750000  0.64900000  1.0 0.3929278105
C  C54  1  0.23550000  0.72250000  0.35100000  1.0 0.3929278105
C  C55  1  0.83840000  0.33680000  0.74280000  1.0 0.5591877102
C  C56  1  0.16160000  0.66320000  0.25720000  1.0 0.5591877102
C  C57  1  0.73700000  0.10200000  0.32110000  1.0 0.3972587137
C  C58  1  0.26300000  0.89800000  0.67890000  1.0 0.3972587137
C  C59  1  0.79750000  0.07230000  0.22570000  1.0 0.5591877102
C  C60  1  0.20250000  0.92770000  0.77430000  1.0 0.5591877102
C  C61  1  0.67170000  0.61780000  0.28680000  1.0 0.3481055497
C  C62  1  0.32830000  0.38220000  0.71320000  1.0 0.3481055497
C  C63  1  0.75820000  0.70340000  0.26120000  1.0 0.4828112571
C  C64  1  0.24180000  0.29660000  0.73880000  1.0 0.4854814558
C  C65  1  0.35600000  0.35560000  0.18750000  1.0 0.2988463788
C  C66  1  0.64400000  0.64440000  0.81250000  1.0 0.2988463788
C  C67  1  0.25540000  0.30280000  0.11420000  1.0 0.4673788248
C  C68  1  0.74460000  0.69720000  0.88580000  1.0 0.4673788248
N  N1  1  0.25600000  0.22110000  0.38980000  1.0 -0.2085187139
N  N2  1  0.74400000  0.77890000  0.61020000  1.0 -0.2085187139
N  N3  1  0.08900000  0.14760000  0.41850000  1.0 0.0387753376
N  N4  1  0.91100000  0.85240000  0.58150000  1.0 0.0387753376
N  N5  1  0.49940000  0.22630000  0.76500000  1.0 -0.2396664174
N  N6  1  0.50060000  0.77370000  0.23500000  1.0 -0.2396664174
N  N7  1  0.56460000  0.33520000  0.91000000  1.0 0.0387753376
N  N8  1  0.43540000  0.66480000  0.09000000  1.0 0.0387753376
O  O1  1  0.71200000  0.32640000  0.62150000  1.0 -0.4900060372
O  O2  1  0.28800000  0.67360000  0.37850000  1.0 -0.4900060372
O  O3  1  0.76670000  0.18520000  0.61080000  1.0 -0.4710471184
O  O4  1  0.23330000  0.81480000  0.38920000  1.0 -0.4710471184
O  O5  1  0.72340000  0.19150000  0.34440000  1.0 -0.4602227659
O  O6  1  0.27660000  0.80850000  0.65560000  1.0 -0.4602227659
O  O7  1  0.70980000  0.03540000  0.36180000  1.0 -0.4900060372
O  O8  1  0.29020000  0.96460000  0.63820000  1.0 -0.4900060372
O  O9  1  0.61370000  0.64820000  0.35560000  1.0 -0.4710471184
O  O10  1  0.38630000  0.35180000  0.64440000  1.0 -0.4710471184
O  O11  1  0.67280000  0.52820000  0.24100000  1.0 -0.4382926152
O  O12  1  0.32720000  0.47180000  0.75900000  1.0 -0.4382926152
O  O13  1  0.35990000  0.44310000  0.24370000  1.0 -0.4292797447
O  O14  1  0.64010000  0.55690000  0.75630000  1.0 -0.4292797447
O  O15  1  0.41930000  0.30270000  0.18120000  1.0 -0.4382926152
O  O16  1  0.58070000  0.69730000  0.81880000  1.0 -0.4382926152
O  O17  1  0.69640000  0.28630000  0.21020000  1.0 -0.2085187139
O  O18  1  0.30360000  0.71370000  0.78980000  1.0 -0.2154282035
F  F1  1  0.86030000  0.43900000  0.76650000  1.0 -0.1908549072
F  F2  1  0.13970000  0.56100000  0.23350000  1.0 -0.1908549072
F  F3  1  0.93320000  0.31520000  0.73810000  1.0 -0.1999920831
F  F4  1  0.06680000  0.68480000  0.26190000  1.0 -0.1999920831
F  F5  1  0.79220000  0.31360000  0.81800000  1.0 -0.1999920831
F  F6  1  0.20780000  0.68640000  0.18200000  1.0 -0.1999920831
F  F7  1  0.83790000  0.99380000  0.21780000  1.0 -0.2085187139
F  F8  1  0.16210000  0.00620000  0.78220000  1.0 -0.2085187139
F  F9  1  0.72840000  0.04310000  0.14840000  1.0 -0.2085187139
F  F10  1  0.27160000  0.95690000  0.85160000  1.0 -0.2085187139
F  F11  1  0.88150000  0.15030000  0.22120000  1.0 -0.2085187139
F  F12  1  0.11850000  0.84970000  0.77880000  1.0 -0.2085187139
F  F13  1  0.74460000  0.69900000  0.17100000  1.0 0.0106354792
F  F14  1  0.25540000  0.30100000  0.82900000  1.0 0.0106354792
F  F15  1  0.75340000  0.80070000  0.31300000  1.0 -0.1908549072
F  F16  1  0.24660000  0.19930000  0.68700000  1.0 -0.1908549072
F  F17  1  0.85830000  0.70710000  0.28860000  1.0 -0.1618989856
F  F18  1  0.14170000  0.29290000  0.71140000  1.0 -0.1618989856
F  F19  1  0.16450000  0.29370000  0.15530000  1.0 -0.1390248494
F  F20  1  0.83550000  0.70630000  0.84470000  1.0 -0.1390248494
F  F21  1  0.24370000  0.20380000  0.06750000  1.0 -0.1299256516
F  F22  1  0.75630000  0.79620000  0.93250000  1.0 -0.1299256516
F  F23  1  0.27810000  0.32100000  0.03630000  1.0 0.0387753376
F  F24  1  0.72190000  0.67900000  0.96370000  1.0 0.0335188097
F  F25  1  0.78600000  0.66600000  0.16300000  1.0 0.1010725802
F  F26  1  0.21400000  0.33400000  0.83700000  1.0 0.1010725802
F  F27  1  0.23870000  0.35600000  0.06100000  1.0 -0.0022812412
F  F28  1  0.76130000  0.64400000  0.93900000  1.0 -0.0022812412
