# DDEC6 charges by PACMAN v1.1 (https://github.com/mtap-research/PACMAN-charge/)
data_XODPUD_ASR_pacman
_symmetry_space_group_name_H-M   'P 1'
_cell_length_a   30.24200000
_cell_length_b   30.24200000
_cell_length_c   13.40600000
_cell_angle_alpha   90.00000000
_cell_angle_beta   90.00000000
_cell_angle_gamma   120.00000000
_symmetry_Int_Tables_number   1
_chemical_formula_structural   Zn3Cr3H48C84N6O31
_chemical_formula_sum   'Zn6 Cr6 H96 C168 N12 O62'
_cell_volume   10618.19911004
_cell_formula_units_Z   2
loop_
 _symmetry_equiv_pos_site_id
 _symmetry_equiv_pos_as_xyz
  1  'x, y, z'
loop_
 _atom_site_type_symbol
 _atom_site_label
 _atom_site_symmetry_multiplicity
 _atom_site_fract_x
 _atom_site_fract_y
 _atom_site_fract_z
 _atom_site_occupancy
 _atom_site_charge
Zn  Zn1  1  0.20631000  0.41262000  0.00000000  1.0 0.6593894787
Zn  Zn2  1  0.58738000  0.79369000  0.00000000  1.0 0.6593894787
Zn  Zn3  1  0.20631000  0.79369000  0.00000000  1.0 0.6593894787
Zn  Zn4  1  0.79369000  0.58738000  0.00000000  1.0 0.6593894787
Zn  Zn5  1  0.41262000  0.20631000  0.00000000  1.0 0.6593894787
Zn  Zn6  1  0.79369000  0.20631000  0.00000000  1.0 0.6593894787
Cr  Cr1  1  0.26023000  0.63012000  0.50000000  1.0 1.4140779006
Cr  Cr2  1  0.36989000  0.63012000  0.50000000  1.0 1.4140779006
Cr  Cr3  1  0.36989000  0.73977000  0.50000000  1.0 1.4140779006
Cr  Cr4  1  0.73977000  0.36989000  0.50000000  1.0 1.4309353657
Cr  Cr5  1  0.63012000  0.36989000  0.50000000  1.0 1.4309353657
Cr  Cr6  1  0.63012000  0.26023000  0.50000000  1.0 1.4309353657
H  H1  1  0.17170000  0.47000000  0.13100000  1.0 0.1180980121
H  H2  1  0.53000000  0.70170000  0.13100000  1.0 0.1180980121
H  H3  1  0.29830000  0.82830000  0.13100000  1.0 0.1180980121
H  H4  1  0.82830000  0.53000000  0.13100000  1.0 0.1180980121
H  H5  1  0.47000000  0.29830000  0.13100000  1.0 0.1180980121
H  H6  1  0.70170000  0.17170000  0.13100000  1.0 0.1180980121
H  H7  1  0.47000000  0.17170000  0.86900000  1.0 0.1180980121
H  H8  1  0.70170000  0.53000000  0.86900000  1.0 0.1148487803
H  H9  1  0.82830000  0.29830000  0.86900000  1.0 0.1180980121
H  H10  1  0.53000000  0.82830000  0.86900000  1.0 0.1180980121
H  H11  1  0.29830000  0.47000000  0.86900000  1.0 0.1180980121
H  H12  1  0.17170000  0.70170000  0.86900000  1.0 0.1180980121
H  H13  1  0.82830000  0.53000000  0.86900000  1.0 0.1180980121
H  H14  1  0.47000000  0.29830000  0.86900000  1.0 0.1180980121
H  H15  1  0.70170000  0.17170000  0.86900000  1.0 0.1180980121
H  H16  1  0.17170000  0.47000000  0.86900000  1.0 0.1180980121
H  H17  1  0.53000000  0.70170000  0.86900000  1.0 0.1180980121
H  H18  1  0.29830000  0.82830000  0.86900000  1.0 0.1180980121
H  H19  1  0.53000000  0.82830000  0.13100000  1.0 0.1180980121
H  H20  1  0.29830000  0.47000000  0.13100000  1.0 0.1180980121
H  H21  1  0.17170000  0.70170000  0.13100000  1.0 0.1180980121
H  H22  1  0.47000000  0.17170000  0.13100000  1.0 0.1180980121
H  H23  1  0.70170000  0.53000000  0.13100000  1.0 0.1180980121
H  H24  1  0.82830000  0.29830000  0.13100000  1.0 0.1180980121
H  H25  1  0.19710000  0.52680000  0.26150000  1.0 0.1382955346
H  H26  1  0.47320000  0.67030000  0.26150000  1.0 0.1382955346
H  H27  1  0.32970000  0.80290000  0.26150000  1.0 0.1382955346
H  H28  1  0.80290000  0.47320000  0.26150000  1.0 0.1382955346
H  H29  1  0.52680000  0.32970000  0.26150000  1.0 0.1382955346
H  H30  1  0.67030000  0.19710000  0.26150000  1.0 0.1382955346
H  H31  1  0.52680000  0.19710000  0.73850000  1.0 0.1382955346
H  H32  1  0.67030000  0.47320000  0.73850000  1.0 0.1382955346
H  H33  1  0.80290000  0.32970000  0.73850000  1.0 0.1382955346
H  H34  1  0.47320000  0.80290000  0.73850000  1.0 0.1382955346
H  H35  1  0.32970000  0.52680000  0.73850000  1.0 0.1382955346
H  H36  1  0.19710000  0.67030000  0.73850000  1.0 0.1382955346
H  H37  1  0.80290000  0.47320000  0.73850000  1.0 0.1382955346
H  H38  1  0.52680000  0.32970000  0.73850000  1.0 0.1382955346
H  H39  1  0.67030000  0.19710000  0.73850000  1.0 0.1382955346
H  H40  1  0.19710000  0.52680000  0.73850000  1.0 0.1382955346
H  H41  1  0.47320000  0.67030000  0.73850000  1.0 0.1382955346
H  H42  1  0.32970000  0.80290000  0.73850000  1.0 0.1382955346
H  H43  1  0.47320000  0.80290000  0.26150000  1.0 0.1382955346
H  H44  1  0.32970000  0.52680000  0.26150000  1.0 0.1382955346
H  H45  1  0.19710000  0.67030000  0.26150000  1.0 0.1382955346
H  H46  1  0.52680000  0.19710000  0.26150000  1.0 0.1382955346
H  H47  1  0.67030000  0.47320000  0.26150000  1.0 0.1382955346
H  H48  1  0.80290000  0.32970000  0.26150000  1.0 0.1382955346
H  H49  1  0.04480000  0.36920000  0.93830000  1.0 0.0885440685
H  H50  1  0.63080000  0.67560000  0.93830000  1.0 0.0885440685
H  H51  1  0.32440000  0.95520000  0.93830000  1.0 0.0885440685
H  H52  1  0.95520000  0.63080000  0.93830000  1.0 0.0885440685
H  H53  1  0.36920000  0.32440000  0.93830000  1.0 0.0885440685
H  H54  1  0.67560000  0.04480000  0.93830000  1.0 0.0885440685
H  H55  1  0.36920000  0.04480000  0.06170000  1.0 0.0885440685
H  H56  1  0.67560000  0.63080000  0.06170000  1.0 0.0885440685
H  H57  1  0.95520000  0.32440000  0.06170000  1.0 0.0885440685
H  H58  1  0.63080000  0.95520000  0.06170000  1.0 0.0885440685
H  H59  1  0.32440000  0.36920000  0.06170000  1.0 0.0885440685
H  H60  1  0.04480000  0.67560000  0.06170000  1.0 0.0885440685
H  H61  1  0.95520000  0.63080000  0.06170000  1.0 0.0885440685
H  H62  1  0.36920000  0.32440000  0.06170000  1.0 0.0885440685
H  H63  1  0.67560000  0.04480000  0.06170000  1.0 0.0885440685
H  H64  1  0.04480000  0.36920000  0.06170000  1.0 0.0885440685
H  H65  1  0.63080000  0.67560000  0.06170000  1.0 0.0885440685
H  H66  1  0.32440000  0.95520000  0.06170000  1.0 0.0885440685
H  H67  1  0.63080000  0.95520000  0.93830000  1.0 0.0885440685
H  H68  1  0.32440000  0.36920000  0.93830000  1.0 0.0885440685
H  H69  1  0.04480000  0.67560000  0.93830000  1.0 0.0885440685
H  H70  1  0.36920000  0.04480000  0.93830000  1.0 0.0885440685
H  H71  1  0.67560000  0.63080000  0.93830000  1.0 0.0885440685
H  H72  1  0.95520000  0.32440000  0.93830000  1.0 0.0885440685
H  H73  1  0.04510000  0.27480000  0.15240000  1.0 0.1180980121
H  H74  1  0.72520000  0.77030000  0.15240000  1.0 0.1180980121
H  H75  1  0.22970000  0.95490000  0.15240000  1.0 0.1180980121
H  H76  1  0.95490000  0.72520000  0.15240000  1.0 0.1180980121
H  H77  1  0.27480000  0.22970000  0.15240000  1.0 0.1180980121
H  H78  1  0.77030000  0.04510000  0.15240000  1.0 0.1180980121
H  H79  1  0.27480000  0.04510000  0.84760000  1.0 0.1180980121
H  H80  1  0.77030000  0.72520000  0.84760000  1.0 0.1180980121
H  H81  1  0.95490000  0.22970000  0.84760000  1.0 0.1180980121
H  H82  1  0.72520000  0.95490000  0.84760000  1.0 0.1180980121
H  H83  1  0.22970000  0.27480000  0.84760000  1.0 0.1180980121
H  H84  1  0.04510000  0.77030000  0.84760000  1.0 0.1180980121
H  H85  1  0.95490000  0.72520000  0.84760000  1.0 0.1180980121
H  H86  1  0.27480000  0.22970000  0.84760000  1.0 0.1180980121
H  H87  1  0.77030000  0.04510000  0.84760000  1.0 0.1180980121
H  H88  1  0.04510000  0.27480000  0.84760000  1.0 0.1180980121
H  H89  1  0.72520000  0.77030000  0.84760000  1.0 0.1180980121
H  H90  1  0.22970000  0.95490000  0.84760000  1.0 0.1180980121
H  H91  1  0.72520000  0.95490000  0.15240000  1.0 0.1180980121
H  H92  1  0.22970000  0.27480000  0.15240000  1.0 0.1180980121
H  H93  1  0.04510000  0.77030000  0.15240000  1.0 0.1180980121
H  H94  1  0.27480000  0.04510000  0.15240000  1.0 0.1180980121
H  H95  1  0.77030000  0.72520000  0.15240000  1.0 0.1180980121
H  H96  1  0.95490000  0.22970000  0.15240000  1.0 0.1180980121
C  C1  1  0.26570000  0.53140000  0.27720000  1.0 -0.0074400117
C  C2  1  0.46860000  0.73430000  0.27720000  1.0 -0.0074400117
C  C3  1  0.26570000  0.73430000  0.27720000  1.0 -0.0074400117
C  C4  1  0.73430000  0.46860000  0.27720000  1.0 -0.0074400117
C  C5  1  0.53140000  0.26570000  0.27720000  1.0 -0.0074400117
C  C6  1  0.73430000  0.26570000  0.27720000  1.0 -0.0074400117
C  C7  1  0.53140000  0.26570000  0.72280000  1.0 -0.0074400117
C  C8  1  0.73430000  0.46860000  0.72280000  1.0 -0.0074400117
C  C9  1  0.73430000  0.26570000  0.72280000  1.0 -0.0074400117
C  C10  1  0.46860000  0.73430000  0.72280000  1.0 -0.0074400117
C  C11  1  0.26570000  0.53140000  0.72280000  1.0 -0.0074400117
C  C12  1  0.26570000  0.73430000  0.72280000  1.0 -0.0074400117
C  C13  1  0.20400000  0.48090000  0.15880000  1.0 0.054298832
C  C14  1  0.51910000  0.72310000  0.15880000  1.0 0.0560348363
C  C15  1  0.27690000  0.79600000  0.15880000  1.0 0.0560348363
C  C16  1  0.79600000  0.51910000  0.15880000  1.0 0.0560348363
C  C17  1  0.48090000  0.27690000  0.15880000  1.0 0.0560348363
C  C18  1  0.72310000  0.20400000  0.15880000  1.0 0.0560348363
C  C19  1  0.48090000  0.20400000  0.84120000  1.0 0.0560348363
C  C20  1  0.72310000  0.51910000  0.84120000  1.0 0.0560348363
C  C21  1  0.79600000  0.27690000  0.84120000  1.0 0.0560348363
C  C22  1  0.51910000  0.79600000  0.84120000  1.0 0.0560348363
C  C23  1  0.27690000  0.48090000  0.84120000  1.0 0.054298832
C  C24  1  0.20400000  0.72310000  0.84120000  1.0 0.0560348363
C  C25  1  0.79600000  0.51910000  0.84120000  1.0 0.0560348363
C  C26  1  0.48090000  0.27690000  0.84120000  1.0 0.0560348363
C  C27  1  0.72310000  0.20400000  0.84120000  1.0 0.0560348363
C  C28  1  0.20400000  0.48090000  0.84120000  1.0 0.054298832
C  C29  1  0.51910000  0.72310000  0.84120000  1.0 0.0560348363
C  C30  1  0.27690000  0.79600000  0.84120000  1.0 0.0560348363
C  C31  1  0.51910000  0.79600000  0.15880000  1.0 0.0560348363
C  C32  1  0.27690000  0.48090000  0.15880000  1.0 0.054298832
C  C33  1  0.20400000  0.72310000  0.15880000  1.0 0.054298832
C  C34  1  0.48090000  0.20400000  0.15880000  1.0 0.0560348363
C  C35  1  0.72310000  0.51910000  0.15880000  1.0 0.0560348363
C  C36  1  0.79600000  0.27690000  0.15880000  1.0 0.0560348363
C  C37  1  0.28390000  0.56780000  0.36120000  1.0 0.6046403673
C  C38  1  0.43220000  0.71610000  0.36120000  1.0 0.6046403673
C  C39  1  0.28390000  0.71610000  0.36120000  1.0 0.6046403673
C  C40  1  0.71610000  0.43220000  0.36120000  1.0 0.6060366658
C  C41  1  0.56780000  0.28390000  0.36120000  1.0 0.6060366658
C  C42  1  0.71610000  0.28390000  0.36120000  1.0 0.6060366658
C  C43  1  0.56780000  0.28390000  0.63880000  1.0 0.6060366658
C  C44  1  0.71610000  0.43220000  0.63880000  1.0 0.6060366658
C  C45  1  0.71610000  0.28390000  0.63880000  1.0 0.6060366658
C  C46  1  0.43220000  0.71610000  0.63880000  1.0 0.6046403673
C  C47  1  0.28390000  0.56780000  0.63880000  1.0 0.6046403673
C  C48  1  0.28390000  0.71610000  0.63880000  1.0 0.6046403673
C  C49  1  0.21860000  0.51520000  0.23710000  1.0 -0.1423617475
C  C50  1  0.48480000  0.70340000  0.23710000  1.0 -0.1423617475
C  C51  1  0.29660000  0.78140000  0.23710000  1.0 -0.1423617475
C  C52  1  0.78140000  0.48480000  0.23710000  1.0 -0.1423617475
C  C53  1  0.51520000  0.29660000  0.23710000  1.0 -0.1423617475
C  C54  1  0.70340000  0.21860000  0.23710000  1.0 -0.1423617475
C  C55  1  0.51520000  0.21860000  0.76290000  1.0 -0.1423617475
C  C56  1  0.70340000  0.48480000  0.76290000  1.0 -0.1423617475
C  C57  1  0.78140000  0.29660000  0.76290000  1.0 -0.1423617475
C  C58  1  0.48480000  0.78140000  0.76290000  1.0 -0.1423617475
C  C59  1  0.29660000  0.51520000  0.76290000  1.0 -0.1423617475
C  C60  1  0.21860000  0.70340000  0.76290000  1.0 -0.1423617475
C  C61  1  0.78140000  0.48480000  0.76290000  1.0 -0.1423617475
C  C62  1  0.51520000  0.29660000  0.76290000  1.0 -0.1423617475
C  C63  1  0.70340000  0.21860000  0.76290000  1.0 -0.1423617475
C  C64  1  0.21860000  0.51520000  0.76290000  1.0 -0.1423617475
C  C65  1  0.48480000  0.70340000  0.76290000  1.0 -0.1423617475
C  C66  1  0.29660000  0.78140000  0.76290000  1.0 -0.1423617475
C  C67  1  0.48480000  0.78140000  0.23710000  1.0 -0.1423617475
C  C68  1  0.29660000  0.51520000  0.23710000  1.0 -0.1423617475
C  C69  1  0.21860000  0.70340000  0.23710000  1.0 -0.1423617475
C  C70  1  0.51520000  0.21860000  0.23710000  1.0 -0.1423617475
C  C71  1  0.70340000  0.48480000  0.23710000  1.0 -0.1423617475
C  C72  1  0.78140000  0.29660000  0.23710000  1.0 -0.1423617475
C  C73  1  0.10870000  0.35220000  0.05740000  1.0 0.3477192747
C  C74  1  0.64780000  0.75650000  0.05740000  1.0 0.3477192747
C  C75  1  0.24350000  0.89130000  0.05740000  1.0 0.3477192747
C  C76  1  0.89130000  0.64780000  0.05740000  1.0 0.3477192747
C  C77  1  0.35220000  0.24350000  0.05740000  1.0 0.3477192747
C  C78  1  0.75650000  0.10870000  0.05740000  1.0 0.3477192747
C  C79  1  0.35220000  0.10870000  0.94260000  1.0 0.3477192747
C  C80  1  0.75650000  0.64780000  0.94260000  1.0 0.3477192747
C  C81  1  0.89130000  0.24350000  0.94260000  1.0 0.3477192747
C  C82  1  0.64780000  0.89130000  0.94260000  1.0 0.3477192747
C  C83  1  0.24350000  0.35220000  0.94260000  1.0 0.3477192747
C  C84  1  0.10870000  0.75650000  0.94260000  1.0 0.3477192747
C  C85  1  0.89130000  0.64780000  0.94260000  1.0 0.3477192747
C  C86  1  0.35220000  0.24350000  0.94260000  1.0 0.3477192747
C  C87  1  0.75650000  0.10870000  0.94260000  1.0 0.3477192747
C  C88  1  0.10870000  0.35220000  0.94260000  1.0 0.3477192747
C  C89  1  0.64780000  0.75650000  0.94260000  1.0 0.3477192747
C  C90  1  0.24350000  0.89130000  0.94260000  1.0 0.3477192747
C  C91  1  0.64780000  0.89130000  0.05740000  1.0 0.3477192747
C  C92  1  0.24350000  0.35220000  0.05740000  1.0 0.3477192747
C  C93  1  0.10870000  0.75650000  0.05740000  1.0 0.3477192747
C  C94  1  0.35220000  0.10870000  0.05740000  1.0 0.3477192747
C  C95  1  0.75650000  0.64780000  0.05740000  1.0 0.3477192747
C  C96  1  0.89130000  0.24350000  0.05740000  1.0 0.3477192747
C  C97  1  0.02654000  0.34160000  0.98200000  1.0 -0.0386717643
C  C98  1  0.65840000  0.68494000  0.98200000  1.0 -0.0386717643
C  C99  1  0.31506000  0.97346000  0.98200000  1.0 -0.0386717643
C  C100  1  0.97346000  0.65840000  0.98200000  1.0 -0.0386717643
C  C101  1  0.34160000  0.31506000  0.98200000  1.0 -0.0386717643
C  C102  1  0.68494000  0.02654000  0.98200000  1.0 -0.0386717643
C  C103  1  0.34160000  0.02654000  0.01800000  1.0 -0.0386717643
C  C104  1  0.68494000  0.65840000  0.01800000  1.0 -0.0386717643
C  C105  1  0.97346000  0.31506000  0.01800000  1.0 -0.0386717643
C  C106  1  0.65840000  0.97346000  0.01800000  1.0 -0.0386717643
C  C107  1  0.31506000  0.34160000  0.01800000  1.0 -0.0386717643
C  C108  1  0.02654000  0.68494000  0.01800000  1.0 -0.0386717643
C  C109  1  0.97346000  0.65840000  0.01800000  1.0 -0.0386717643
C  C110  1  0.34160000  0.31506000  0.01800000  1.0 -0.0386717643
C  C111  1  0.68494000  0.02654000  0.01800000  1.0 -0.0386717643
C  C112  1  0.02654000  0.34160000  0.01800000  1.0 -0.0386717643
C  C113  1  0.65840000  0.68494000  0.01800000  1.0 -0.0386717643
C  C114  1  0.31506000  0.97346000  0.01800000  1.0 -0.0386717643
C  C115  1  0.65840000  0.97346000  0.98200000  1.0 -0.0386717643
C  C116  1  0.31506000  0.34160000  0.98200000  1.0 -0.0386717643
C  C117  1  0.02654000  0.68494000  0.98200000  1.0 -0.0386717643
C  C118  1  0.34160000  0.02654000  0.98200000  1.0 -0.0386717643
C  C119  1  0.68494000  0.65840000  0.98200000  1.0 -0.0386717643
C  C120  1  0.97346000  0.31506000  0.98200000  1.0 -0.0386717643
C  C121  1  0.02668000  0.28480000  0.11080000  1.0 -0.1727179753
C  C122  1  0.71520000  0.74188000  0.11080000  1.0 -0.1727179753
C  C123  1  0.25812000  0.97332000  0.11080000  1.0 -0.1727179753
C  C124  1  0.97332000  0.71520000  0.11080000  1.0 -0.1727179753
C  C125  1  0.28480000  0.25812000  0.11080000  1.0 -0.1727179753
C  C126  1  0.74188000  0.02668000  0.11080000  1.0 -0.1802647215
C  C127  1  0.28480000  0.02668000  0.88920000  1.0 -0.1802647215
C  C128  1  0.74188000  0.71520000  0.88920000  1.0 -0.1802647215
C  C129  1  0.97332000  0.25812000  0.88920000  1.0 -0.1727179753
C  C130  1  0.71520000  0.97332000  0.88920000  1.0 -0.1727179753
C  C131  1  0.25812000  0.28480000  0.88920000  1.0 -0.1802647215
C  C132  1  0.02668000  0.74188000  0.88920000  1.0 -0.1727179753
C  C133  1  0.97332000  0.71520000  0.88920000  1.0 -0.1727179753
C  C134  1  0.28480000  0.25812000  0.88920000  1.0 -0.1727179753
C  C135  1  0.74188000  0.02668000  0.88920000  1.0 -0.1802647215
C  C136  1  0.02668000  0.28480000  0.88920000  1.0 -0.1727179753
C  C137  1  0.71520000  0.74188000  0.88920000  1.0 -0.1727179753
C  C138  1  0.25812000  0.97332000  0.88920000  1.0 -0.1727179753
C  C139  1  0.71520000  0.97332000  0.11080000  1.0 -0.1727179753
C  C140  1  0.25812000  0.28480000  0.11080000  1.0 -0.1727179753
C  C141  1  0.02668000  0.74188000  0.11080000  1.0 -0.1727179753
C  C142  1  0.28480000  0.02668000  0.11080000  1.0 -0.1802647215
C  C143  1  0.74188000  0.71520000  0.11080000  1.0 -0.1802647215
C  C144  1  0.97332000  0.25812000  0.11080000  1.0 -0.1727179753
C  C145  1  0.05180000  0.32670000  0.04730000  1.0 -0.0386717643
C  C146  1  0.67330000  0.72510000  0.04730000  1.0 -0.0335480209
C  C147  1  0.27490000  0.94820000  0.04730000  1.0 -0.0335480209
C  C148  1  0.94820000  0.67330000  0.04730000  1.0 -0.0335480209
C  C149  1  0.32670000  0.27490000  0.04730000  1.0 -0.0335480209
C  C150  1  0.72510000  0.05180000  0.04730000  1.0 -0.0335480209
C  C151  1  0.32670000  0.05180000  0.95270000  1.0 -0.0335480209
C  C152  1  0.72510000  0.67330000  0.95270000  1.0 -0.0335480209
C  C153  1  0.94820000  0.27490000  0.95270000  1.0 -0.0386717643
C  C154  1  0.67330000  0.94820000  0.95270000  1.0 -0.0386717643
C  C155  1  0.27490000  0.32670000  0.95270000  1.0 -0.0335480209
C  C156  1  0.05180000  0.72510000  0.95270000  1.0 -0.0335480209
C  C157  1  0.94820000  0.67330000  0.95270000  1.0 -0.0386717643
C  C158  1  0.32670000  0.27490000  0.95270000  1.0 -0.0335480209
C  C159  1  0.72510000  0.05180000  0.95270000  1.0 -0.0335480209
C  C160  1  0.05180000  0.32670000  0.95270000  1.0 -0.0386717643
C  C161  1  0.67330000  0.72510000  0.95270000  1.0 -0.0335480209
C  C162  1  0.27490000  0.94820000  0.95270000  1.0 -0.0335480209
C  C163  1  0.67330000  0.94820000  0.04730000  1.0 -0.0335480209
C  C164  1  0.27490000  0.32670000  0.04730000  1.0 -0.0335480209
C  C165  1  0.05180000  0.72510000  0.04730000  1.0 -0.0335480209
C  C166  1  0.32670000  0.05180000  0.04730000  1.0 -0.0335480209
C  C167  1  0.72510000  0.67330000  0.04730000  1.0 -0.0335480209
C  C168  1  0.94820000  0.27490000  0.04730000  1.0 -0.0335480209
N  N1  1  0.23085000  0.46170000  0.11900000  1.0 -0.2178587216
N  N2  1  0.53830000  0.76915000  0.11900000  1.0 -0.2178587216
N  N3  1  0.23085000  0.76915000  0.11900000  1.0 -0.2178587216
N  N4  1  0.76915000  0.53830000  0.11900000  1.0 -0.2178587216
N  N5  1  0.46170000  0.23085000  0.11900000  1.0 -0.2178587216
N  N6  1  0.76915000  0.23085000  0.11900000  1.0 -0.2178587216
N  N7  1  0.46170000  0.23085000  0.88100000  1.0 -0.2178587216
N  N8  1  0.76915000  0.53830000  0.88100000  1.0 -0.2178587216
N  N9  1  0.76915000  0.23085000  0.88100000  1.0 -0.2178587216
N  N10  1  0.53830000  0.76915000  0.88100000  1.0 -0.2178587216
N  N11  1  0.23085000  0.46170000  0.88100000  1.0 -0.2178587216
N  N12  1  0.23085000  0.76915000  0.88100000  1.0 -0.2178587216
O  O1  1  0.25450000  0.58240000  0.39390000  1.0 -0.5643010113
O  O2  1  0.41760000  0.67210000  0.39390000  1.0 -0.5643010113
O  O3  1  0.32790000  0.74550000  0.39390000  1.0 -0.5643010113
O  O4  1  0.74550000  0.41760000  0.39390000  1.0 -0.5643010113
O  O5  1  0.58240000  0.32790000  0.39390000  1.0 -0.5643010113
O  O6  1  0.67210000  0.25450000  0.39390000  1.0 -0.5643010113
O  O7  1  0.58240000  0.25450000  0.60610000  1.0 -0.5643010113
O  O8  1  0.67210000  0.41760000  0.60610000  1.0 -0.5643010113
O  O9  1  0.74550000  0.32790000  0.60610000  1.0 -0.5643010113
O  O10  1  0.41760000  0.74550000  0.60610000  1.0 -0.5643010113
O  O11  1  0.32790000  0.58240000  0.60610000  1.0 -0.5643010113
O  O12  1  0.25450000  0.67210000  0.60610000  1.0 -0.5643010113
O  O13  1  0.74550000  0.41760000  0.60610000  1.0 -0.5643010113
O  O14  1  0.58240000  0.32790000  0.60610000  1.0 -0.5643010113
O  O15  1  0.67210000  0.25450000  0.60610000  1.0 -0.5643010113
O  O16  1  0.25450000  0.58240000  0.60610000  1.0 -0.5643010113
O  O17  1  0.41760000  0.67210000  0.60610000  1.0 -0.5643010113
O  O18  1  0.32790000  0.74550000  0.60610000  1.0 -0.5643010113
O  O19  1  0.41760000  0.74550000  0.39390000  1.0 -0.5643010113
O  O20  1  0.32790000  0.58240000  0.39390000  1.0 -0.5643010113
O  O21  1  0.25450000  0.67210000  0.39390000  1.0 -0.5643010113
O  O22  1  0.58240000  0.25450000  0.39390000  1.0 -0.5643010113
O  O23  1  0.67210000  0.41760000  0.39390000  1.0 -0.5643010113
O  O24  1  0.74550000  0.32790000  0.39390000  1.0 -0.5643010113
O  O25  1  0.13600000  0.34280000  0.11440000  1.0 -0.3860957137
O  O26  1  0.65720000  0.79320000  0.11440000  1.0 -0.3840310817
O  O27  1  0.20680000  0.86400000  0.11440000  1.0 -0.3860957137
O  O28  1  0.86400000  0.65720000  0.11440000  1.0 -0.3840310817
O  O29  1  0.34280000  0.20680000  0.11440000  1.0 -0.3860957137
O  O30  1  0.79320000  0.13600000  0.11440000  1.0 -0.3860957137
O  O31  1  0.34280000  0.13600000  0.88560000  1.0 -0.3860957137
O  O32  1  0.79320000  0.65720000  0.88560000  1.0 -0.3840310817
O  O33  1  0.86400000  0.20680000  0.88560000  1.0 -0.3840310817
O  O34  1  0.65720000  0.86400000  0.88560000  1.0 -0.3860957137
O  O35  1  0.20680000  0.34280000  0.88560000  1.0 -0.3860957137
O  O36  1  0.13600000  0.79320000  0.88560000  1.0 -0.3860957137
O  O37  1  0.86400000  0.65720000  0.88560000  1.0 -0.3840310817
O  O38  1  0.34280000  0.20680000  0.88560000  1.0 -0.3840310817
O  O39  1  0.79320000  0.13600000  0.88560000  1.0 -0.3840310817
O  O40  1  0.13600000  0.34280000  0.88560000  1.0 -0.3860957137
O  O41  1  0.65720000  0.79320000  0.88560000  1.0 -0.3840310817
O  O42  1  0.20680000  0.86400000  0.88560000  1.0 -0.3840310817
O  O43  1  0.65720000  0.86400000  0.11440000  1.0 -0.3840310817
O  O44  1  0.20680000  0.34280000  0.11440000  1.0 -0.3860957137
O  O45  1  0.13600000  0.79320000  0.11440000  1.0 -0.3860957137
O  O46  1  0.34280000  0.13600000  0.11440000  1.0 -0.3860957137
O  O47  1  0.79320000  0.65720000  0.11440000  1.0 -0.3840310817
O  O48  1  0.86400000  0.20680000  0.11440000  1.0 -0.3860957137
O  O49  1  0.13400000  0.38810000  0.00000000  1.0 -0.2924913861
O  O50  1  0.61190000  0.74590000  0.00000000  1.0 -0.2924913861
O  O51  1  0.25410000  0.86600000  0.00000000  1.0 -0.2924913861
O  O52  1  0.86600000  0.61190000  0.00000000  1.0 -0.2924913861
O  O53  1  0.38810000  0.25410000  0.00000000  1.0 -0.2924913861
O  O54  1  0.74590000  0.13400000  0.00000000  1.0 -0.2924913861
O  O55  1  0.38810000  0.13400000  0.00000000  1.0 -0.2924913861
O  O56  1  0.74590000  0.61190000  0.00000000  1.0 -0.2924913861
O  O57  1  0.86600000  0.25410000  0.00000000  1.0 -0.2924913861
O  O58  1  0.61190000  0.86600000  0.00000000  1.0 -0.2924913861
O  O59  1  0.25410000  0.38810000  0.00000000  1.0 -0.2924913861
O  O60  1  0.13400000  0.74590000  0.00000000  1.0 -0.2924913861
O  O61  1  0.33333333  0.66666667  0.50000000  1.0 -1.0862686607
O  O62  1  0.66666667  0.33333333  0.50000000  1.0 -1.0862686607
