# DDEC6 charges by PACMAN v1.1 (https://github.com/mtap-research/PACMAN-charge/)
data_XOGQOB_ASR_pacman
_symmetry_space_group_name_H-M   'P 1'
_cell_length_a   25.79450000
_cell_length_b   25.79450000
_cell_length_c   25.79450000
_cell_angle_alpha   60.00000000
_cell_angle_beta   60.00000000
_cell_angle_gamma   60.00000000
_symmetry_Int_Tables_number   1
_chemical_formula_structural   CuH4C12(SO)4
_chemical_formula_sum   'Cu12 H48 C144 S48 O48'
_cell_volume   12135.74225125
_cell_formula_units_Z   12
loop_
 _symmetry_equiv_pos_site_id
 _symmetry_equiv_pos_as_xyz
  1  'x, y, z'
loop_
 _atom_site_type_symbol
 _atom_site_label
 _atom_site_symmetry_multiplicity
 _atom_site_fract_x
 _atom_site_fract_y
 _atom_site_fract_z
 _atom_site_occupancy
 _atom_site_charge
Cu  Cu1  1  0.94840000  0.05160000  0.50000000  1.0 0.870248604
Cu  Cu2  1  0.50000000  0.50000000  0.05160000  1.0 0.870248604
Cu  Cu3  1  0.05160000  0.94840000  0.50000000  1.0 0.870248604
Cu  Cu4  1  0.50000000  0.50000000  0.94840000  1.0 0.870248604
Cu  Cu5  1  0.50000000  0.94840000  0.05160000  1.0 0.870248604
Cu  Cu6  1  0.50000000  0.94840000  0.50000000  1.0 0.870248604
Cu  Cu7  1  0.94840000  0.50000000  0.50000000  1.0 0.870248604
Cu  Cu8  1  0.94840000  0.50000000  0.05160000  1.0 0.870248604
Cu  Cu9  1  0.50000000  0.05160000  0.94840000  1.0 0.870248604
Cu  Cu10  1  0.50000000  0.05160000  0.50000000  1.0 0.870248604
Cu  Cu11  1  0.05160000  0.50000000  0.50000000  1.0 0.870248604
Cu  Cu12  1  0.05160000  0.50000000  0.94840000  1.0 0.870248604
H  H1  1  0.01720000  0.16860000  0.28940000  1.0 0.1154439195
H  H2  1  0.47520000  0.71060000  0.98280000  1.0 0.1154439195
H  H3  1  0.16860000  0.01720000  0.52480000  1.0 0.1154439195
H  H4  1  0.71060000  0.47520000  0.83140000  1.0 0.1154439195
H  H5  1  0.52480000  0.28940000  0.16860000  1.0 0.1154439195
H  H6  1  0.98280000  0.83140000  0.47520000  1.0 0.1154439195
H  H7  1  0.28940000  0.52480000  0.01720000  1.0 0.1154439195
H  H8  1  0.83140000  0.98280000  0.71060000  1.0 0.1154439195
H  H9  1  0.28940000  0.01720000  0.16860000  1.0 0.1154439195
H  H10  1  0.47520000  0.83140000  0.71060000  1.0 0.1154439195
H  H11  1  0.01720000  0.28940000  0.52480000  1.0 0.1154439195
H  H12  1  0.83140000  0.47520000  0.98280000  1.0 0.1154439195
H  H13  1  0.52480000  0.16860000  0.01720000  1.0 0.1154439195
H  H14  1  0.71060000  0.98280000  0.47520000  1.0 0.1154439195
H  H15  1  0.16860000  0.52480000  0.28940000  1.0 0.1154439195
H  H16  1  0.98280000  0.71060000  0.83140000  1.0 0.1154439195
H  H17  1  0.16860000  0.28940000  0.01720000  1.0 0.1154439195
H  H18  1  0.71060000  0.83140000  0.98280000  1.0 0.1154439195
H  H19  1  0.47520000  0.98280000  0.83140000  1.0 0.1154439195
H  H20  1  0.83140000  0.71060000  0.47520000  1.0 0.1154439195
H  H21  1  0.98280000  0.47520000  0.71060000  1.0 0.1154439195
H  H22  1  0.52480000  0.01720000  0.28940000  1.0 0.1154439195
H  H23  1  0.28940000  0.16860000  0.52480000  1.0 0.1154439195
H  H24  1  0.01720000  0.52480000  0.16860000  1.0 0.1154439195
H  H25  1  0.98280000  0.83140000  0.71060000  1.0 0.1154439195
H  H26  1  0.52480000  0.28940000  0.01720000  1.0 0.1154439195
H  H27  1  0.83140000  0.98280000  0.47520000  1.0 0.1154439195
H  H28  1  0.28940000  0.52480000  0.16860000  1.0 0.1154439195
H  H29  1  0.47520000  0.71060000  0.83140000  1.0 0.1154439195
H  H30  1  0.01720000  0.16860000  0.52480000  1.0 0.1154439195
H  H31  1  0.71060000  0.47520000  0.98280000  1.0 0.1154439195
H  H32  1  0.16860000  0.01720000  0.28940000  1.0 0.1154439195
H  H33  1  0.71060000  0.98280000  0.83140000  1.0 0.1154439195
H  H34  1  0.52480000  0.16860000  0.28940000  1.0 0.1154439195
H  H35  1  0.98280000  0.71060000  0.47520000  1.0 0.1154439195
H  H36  1  0.16860000  0.52480000  0.01720000  1.0 0.1154439195
H  H37  1  0.47520000  0.83140000  0.98280000  1.0 0.1154439195
H  H38  1  0.28940000  0.01720000  0.52480000  1.0 0.1154439195
H  H39  1  0.83140000  0.47520000  0.71060000  1.0 0.1154439195
H  H40  1  0.01720000  0.28940000  0.16860000  1.0 0.1154439195
H  H41  1  0.83140000  0.71060000  0.98280000  1.0 0.1154439195
H  H42  1  0.28940000  0.16860000  0.01720000  1.0 0.1154439195
H  H43  1  0.52480000  0.01720000  0.16860000  1.0 0.1154439195
H  H44  1  0.16860000  0.28940000  0.52480000  1.0 0.1154439195
H  H45  1  0.01720000  0.52480000  0.28940000  1.0 0.1154439195
H  H46  1  0.47520000  0.98280000  0.71060000  1.0 0.1154439195
H  H47  1  0.71060000  0.83140000  0.47520000  1.0 0.1154439195
H  H48  1  0.98280000  0.47520000  0.83140000  1.0 0.1154439195
C  C1  1  0.07930000  0.07930000  0.31388000  1.0 0.0011199854
C  C2  1  0.47248000  0.68612000  0.92070000  1.0 0.0011199854
C  C3  1  0.07930000  0.07930000  0.52752000  1.0 0.0011199854
C  C4  1  0.68612000  0.47248000  0.92070000  1.0 0.0011199854
C  C5  1  0.52752000  0.31388000  0.07930000  1.0 0.0011199854
C  C6  1  0.92070000  0.92070000  0.47248000  1.0 0.0011199854
C  C7  1  0.31388000  0.52752000  0.07930000  1.0 0.0011199854
C  C8  1  0.92070000  0.92070000  0.68612000  1.0 0.0011199854
C  C9  1  0.31388000  0.07930000  0.07930000  1.0 0.0011199854
C  C10  1  0.47248000  0.92070000  0.68612000  1.0 0.0011199854
C  C11  1  0.07930000  0.31388000  0.52752000  1.0 0.0011199854
C  C12  1  0.92070000  0.47248000  0.92070000  1.0 0.0011199854
C  C13  1  0.52752000  0.07930000  0.07930000  1.0 0.0011199854
C  C14  1  0.68612000  0.92070000  0.47248000  1.0 0.0011199854
C  C15  1  0.07930000  0.52752000  0.31388000  1.0 0.0011199854
C  C16  1  0.92070000  0.68612000  0.92070000  1.0 0.0011199854
C  C17  1  0.07930000  0.31388000  0.07930000  1.0 0.0011199854
C  C18  1  0.68612000  0.92070000  0.92070000  1.0 0.0011199854
C  C19  1  0.47248000  0.92070000  0.92070000  1.0 0.0011199854
C  C20  1  0.92070000  0.68612000  0.47248000  1.0 0.0011199854
C  C21  1  0.92070000  0.47248000  0.68612000  1.0 0.0011199854
C  C22  1  0.52752000  0.07930000  0.31388000  1.0 0.0011199854
C  C23  1  0.31388000  0.07930000  0.52752000  1.0 0.0011199854
C  C24  1  0.07930000  0.52752000  0.07930000  1.0 0.0011199854
C  C25  1  0.15503000  0.10087000  0.20965000  1.0 -0.0394885582
C  C26  1  0.46555000  0.79035000  0.84497000  1.0 -0.0394885582
C  C27  1  0.10087000  0.15503000  0.53445000  1.0 -0.0394885582
C  C28  1  0.79035000  0.46555000  0.89913000  1.0 -0.0394885582
C  C29  1  0.53445000  0.20965000  0.10087000  1.0 -0.0394885582
C  C30  1  0.84497000  0.89913000  0.46555000  1.0 -0.0394885582
C  C31  1  0.20965000  0.53445000  0.15503000  1.0 -0.0394885582
C  C32  1  0.89913000  0.84497000  0.79035000  1.0 -0.0394885582
C  C33  1  0.20965000  0.15503000  0.10087000  1.0 -0.0394885582
C  C34  1  0.46555000  0.89913000  0.79035000  1.0 -0.0394885582
C  C35  1  0.15503000  0.20965000  0.53445000  1.0 -0.0394885582
C  C36  1  0.89913000  0.46555000  0.84497000  1.0 -0.0394885582
C  C37  1  0.53445000  0.10087000  0.15503000  1.0 -0.0394885582
C  C38  1  0.79035000  0.84497000  0.46555000  1.0 -0.0394885582
C  C39  1  0.10087000  0.53445000  0.20965000  1.0 -0.0394885582
C  C40  1  0.84497000  0.79035000  0.89913000  1.0 -0.0394885582
C  C41  1  0.10087000  0.20965000  0.15503000  1.0 -0.0394885582
C  C42  1  0.79035000  0.89913000  0.84497000  1.0 -0.0394885582
C  C43  1  0.46555000  0.84497000  0.89913000  1.0 -0.0394885582
C  C44  1  0.89913000  0.79035000  0.46555000  1.0 -0.0394885582
C  C45  1  0.84497000  0.46555000  0.79035000  1.0 -0.0394885582
C  C46  1  0.53445000  0.15503000  0.20965000  1.0 -0.0394885582
C  C47  1  0.20965000  0.10087000  0.53445000  1.0 -0.0394885582
C  C48  1  0.15503000  0.53445000  0.10087000  1.0 -0.0394885582
C  C49  1  0.84497000  0.89913000  0.79035000  1.0 -0.0394885582
C  C50  1  0.53445000  0.20965000  0.15503000  1.0 -0.0394885582
C  C51  1  0.89913000  0.84497000  0.46555000  1.0 -0.0394885582
C  C52  1  0.20965000  0.53445000  0.10087000  1.0 -0.0394885582
C  C53  1  0.46555000  0.79035000  0.89913000  1.0 -0.0394885582
C  C54  1  0.15503000  0.10087000  0.53445000  1.0 -0.0394885582
C  C55  1  0.79035000  0.46555000  0.84497000  1.0 -0.0394885582
C  C56  1  0.10087000  0.15503000  0.20965000  1.0 -0.0394885582
C  C57  1  0.79035000  0.84497000  0.89913000  1.0 -0.0394885582
C  C58  1  0.53445000  0.10087000  0.20965000  1.0 -0.0394885582
C  C59  1  0.84497000  0.79035000  0.46555000  1.0 -0.0394885582
C  C60  1  0.10087000  0.53445000  0.15503000  1.0 -0.0394885582
C  C61  1  0.46555000  0.89913000  0.84497000  1.0 -0.0394885582
C  C62  1  0.20965000  0.15503000  0.53445000  1.0 -0.0394885582
C  C63  1  0.89913000  0.46555000  0.79035000  1.0 -0.0394885582
C  C64  1  0.15503000  0.20965000  0.10087000  1.0 -0.0394885582
C  C65  1  0.89913000  0.79035000  0.84497000  1.0 -0.0394885582
C  C66  1  0.20965000  0.10087000  0.15503000  1.0 -0.0394885582
C  C67  1  0.53445000  0.15503000  0.10087000  1.0 -0.0394885582
C  C68  1  0.10087000  0.20965000  0.53445000  1.0 -0.0394885582
C  C69  1  0.15503000  0.53445000  0.20965000  1.0 -0.0394885582
C  C70  1  0.46555000  0.84497000  0.79035000  1.0 -0.0394885582
C  C71  1  0.79035000  0.89913000  0.46555000  1.0 -0.0394885582
C  C72  1  0.84497000  0.46555000  0.89913000  1.0 -0.0338703481
C  C73  1  0.04843000  0.04843000  0.38431000  1.0 0.5181362164
C  C74  1  0.48117000  0.61569000  0.95157000  1.0 0.5181362164
C  C75  1  0.04843000  0.04843000  0.51883000  1.0 0.5181362164
C  C76  1  0.61569000  0.48117000  0.95157000  1.0 0.5181362164
C  C77  1  0.51883000  0.38431000  0.04843000  1.0 0.5181362164
C  C78  1  0.95157000  0.95157000  0.48117000  1.0 0.5181362164
C  C79  1  0.38431000  0.51883000  0.04843000  1.0 0.5181362164
C  C80  1  0.95157000  0.95157000  0.61569000  1.0 0.5181362164
C  C81  1  0.38431000  0.04843000  0.04843000  1.0 0.5181362164
C  C82  1  0.48117000  0.95157000  0.61569000  1.0 0.5181362164
C  C83  1  0.04843000  0.38431000  0.51883000  1.0 0.5181362164
C  C84  1  0.95157000  0.48117000  0.95157000  1.0 0.5181362164
C  C85  1  0.51883000  0.04843000  0.04843000  1.0 0.5181362164
C  C86  1  0.61569000  0.95157000  0.48117000  1.0 0.5181362164
C  C87  1  0.04843000  0.51883000  0.38431000  1.0 0.5181362164
C  C88  1  0.95157000  0.61569000  0.95157000  1.0 0.5181362164
C  C89  1  0.04843000  0.38431000  0.04843000  1.0 0.5181362164
C  C90  1  0.61569000  0.95157000  0.95157000  1.0 0.5181362164
C  C91  1  0.48117000  0.95157000  0.95157000  1.0 0.5181362164
C  C92  1  0.95157000  0.61569000  0.48117000  1.0 0.5181362164
C  C93  1  0.95157000  0.48117000  0.61569000  1.0 0.5181362164
C  C94  1  0.51883000  0.04843000  0.38431000  1.0 0.5181362164
C  C95  1  0.38431000  0.04843000  0.51883000  1.0 0.5181362164
C  C96  1  0.04843000  0.51883000  0.04843000  1.0 0.5181362164
C  C97  1  0.05890000  0.13970000  0.27550000  1.0 -0.0936323979
C  C98  1  0.47410000  0.72450000  0.94110000  1.0 -0.0936323979
C  C99  1  0.13970000  0.05890000  0.52590000  1.0 -0.0936323979
C  C100  1  0.72450000  0.47410000  0.86030000  1.0 -0.0936323979
C  C101  1  0.52590000  0.27550000  0.13970000  1.0 -0.0936323979
C  C102  1  0.94110000  0.86030000  0.47410000  1.0 -0.0936323979
C  C103  1  0.27550000  0.52590000  0.05890000  1.0 -0.0936323979
C  C104  1  0.86030000  0.94110000  0.72450000  1.0 -0.0936323979
C  C105  1  0.27550000  0.05890000  0.13970000  1.0 -0.0936323979
C  C106  1  0.47410000  0.86030000  0.72450000  1.0 -0.0936323979
C  C107  1  0.05890000  0.27550000  0.52590000  1.0 -0.0936323979
C  C108  1  0.86030000  0.47410000  0.94110000  1.0 -0.0936323979
C  C109  1  0.52590000  0.13970000  0.05890000  1.0 -0.0936323979
C  C110  1  0.72450000  0.94110000  0.47410000  1.0 -0.0936323979
C  C111  1  0.13970000  0.52590000  0.27550000  1.0 -0.0936323979
C  C112  1  0.94110000  0.72450000  0.86030000  1.0 -0.0936323979
C  C113  1  0.13970000  0.27550000  0.05890000  1.0 -0.0936323979
C  C114  1  0.72450000  0.86030000  0.94110000  1.0 -0.0936323979
C  C115  1  0.47410000  0.94110000  0.86030000  1.0 -0.0936323979
C  C116  1  0.86030000  0.72450000  0.47410000  1.0 -0.0936323979
C  C117  1  0.94110000  0.47410000  0.72450000  1.0 -0.0936323979
C  C118  1  0.52590000  0.05890000  0.27550000  1.0 -0.0936323979
C  C119  1  0.27550000  0.13970000  0.52590000  1.0 -0.0936323979
C  C120  1  0.05890000  0.52590000  0.13970000  1.0 -0.0936323979
C  C121  1  0.94110000  0.86030000  0.72450000  1.0 -0.0936323979
C  C122  1  0.52590000  0.27550000  0.05890000  1.0 -0.0936323979
C  C123  1  0.86030000  0.94110000  0.47410000  1.0 -0.0936323979
C  C124  1  0.27550000  0.52590000  0.13970000  1.0 -0.0936323979
C  C125  1  0.47410000  0.72450000  0.86030000  1.0 -0.0936323979
C  C126  1  0.05890000  0.13970000  0.52590000  1.0 -0.0936323979
C  C127  1  0.72450000  0.47410000  0.94110000  1.0 -0.0936323979
C  C128  1  0.13970000  0.05890000  0.27550000  1.0 -0.0936323979
C  C129  1  0.72450000  0.94110000  0.86030000  1.0 -0.0936323979
C  C130  1  0.52590000  0.13970000  0.27550000  1.0 -0.0936323979
C  C131  1  0.94110000  0.72450000  0.47410000  1.0 -0.0936323979
C  C132  1  0.13970000  0.52590000  0.05890000  1.0 -0.0936323979
C  C133  1  0.47410000  0.86030000  0.94110000  1.0 -0.0936323979
C  C134  1  0.27550000  0.05890000  0.52590000  1.0 -0.0936323979
C  C135  1  0.86030000  0.47410000  0.72450000  1.0 -0.0936323979
C  C136  1  0.05890000  0.27550000  0.13970000  1.0 -0.0936323979
C  C137  1  0.86030000  0.72450000  0.94110000  1.0 -0.0936323979
C  C138  1  0.27550000  0.13970000  0.05890000  1.0 -0.0936323979
C  C139  1  0.52590000  0.05890000  0.13970000  1.0 -0.0936323979
C  C140  1  0.13970000  0.27550000  0.52590000  1.0 -0.0936323979
C  C141  1  0.05890000  0.52590000  0.27550000  1.0 -0.0936323979
C  C142  1  0.47410000  0.94110000  0.72450000  1.0 -0.0936323979
C  C143  1  0.72450000  0.86030000  0.47410000  1.0 -0.0936323979
C  C144  1  0.94110000  0.47410000  0.86030000  1.0 -0.0936323979
S  S1  1  0.15863000  0.03457000  0.27657000  1.0 0.0489381081
S  S2  1  0.46977000  0.72343000  0.84137000  1.0 0.0489381081
S  S3  1  0.03457000  0.15863000  0.53023000  1.0 0.0489381081
S  S4  1  0.72343000  0.46977000  0.96543000  1.0 0.0489381081
S  S5  1  0.53023000  0.27657000  0.03457000  1.0 0.0489381081
S  S6  1  0.84137000  0.96543000  0.46977000  1.0 0.0489381081
S  S7  1  0.27657000  0.53023000  0.15863000  1.0 0.0489381081
S  S8  1  0.96543000  0.84137000  0.72343000  1.0 0.0489381081
S  S9  1  0.27657000  0.15863000  0.03457000  1.0 0.0489381081
S  S10  1  0.46977000  0.96543000  0.72343000  1.0 0.0489381081
S  S11  1  0.15863000  0.27657000  0.53023000  1.0 0.0489381081
S  S12  1  0.96543000  0.46977000  0.84137000  1.0 0.0489381081
S  S13  1  0.53023000  0.03457000  0.15863000  1.0 0.0489381081
S  S14  1  0.72343000  0.84137000  0.46977000  1.0 0.0489381081
S  S15  1  0.03457000  0.53023000  0.27657000  1.0 0.0489381081
S  S16  1  0.84137000  0.72343000  0.96543000  1.0 0.0489381081
S  S17  1  0.03457000  0.27657000  0.15863000  1.0 0.0489381081
S  S18  1  0.72343000  0.96543000  0.84137000  1.0 0.0489381081
S  S19  1  0.46977000  0.84137000  0.96543000  1.0 0.0489381081
S  S20  1  0.96543000  0.72343000  0.46977000  1.0 0.0489381081
S  S21  1  0.84137000  0.46977000  0.72343000  1.0 0.0489381081
S  S22  1  0.53023000  0.15863000  0.27657000  1.0 0.0489381081
S  S23  1  0.27657000  0.03457000  0.53023000  1.0 0.0489381081
S  S24  1  0.15863000  0.53023000  0.03457000  1.0 0.0489381081
S  S25  1  0.84137000  0.96543000  0.72343000  1.0 0.0489381081
S  S26  1  0.53023000  0.27657000  0.15863000  1.0 0.0489381081
S  S27  1  0.96543000  0.84137000  0.46977000  1.0 0.0489381081
S  S28  1  0.27657000  0.53023000  0.03457000  1.0 0.0489381081
S  S29  1  0.46977000  0.72343000  0.96543000  1.0 0.0489381081
S  S30  1  0.15863000  0.03457000  0.53023000  1.0 0.0489381081
S  S31  1  0.72343000  0.46977000  0.84137000  1.0 0.0489381081
S  S32  1  0.03457000  0.15863000  0.27657000  1.0 0.0489381081
S  S33  1  0.72343000  0.84137000  0.96543000  1.0 0.0489381081
S  S34  1  0.53023000  0.03457000  0.27657000  1.0 0.0489381081
S  S35  1  0.84137000  0.72343000  0.46977000  1.0 0.0489381081
S  S36  1  0.03457000  0.53023000  0.15863000  1.0 0.0489381081
S  S37  1  0.46977000  0.96543000  0.84137000  1.0 0.0489381081
S  S38  1  0.27657000  0.15863000  0.53023000  1.0 0.0489381081
S  S39  1  0.96543000  0.46977000  0.72343000  1.0 0.0489381081
S  S40  1  0.15863000  0.27657000  0.03457000  1.0 0.0489381081
S  S41  1  0.96543000  0.72343000  0.84137000  1.0 0.0489381081
S  S42  1  0.27657000  0.03457000  0.15863000  1.0 0.0489381081
S  S43  1  0.53023000  0.15863000  0.03457000  1.0 0.0489381081
S  S44  1  0.03457000  0.27657000  0.53023000  1.0 0.0489381081
S  S45  1  0.15863000  0.53023000  0.27657000  1.0 0.0489381081
S  S46  1  0.46977000  0.84137000  0.72343000  1.0 0.0489381081
S  S47  1  0.72343000  0.96543000  0.46977000  1.0 0.0489381081
S  S48  1  0.84137000  0.46977000  0.96543000  1.0 0.0489381081
O  O1  1  0.99367000  0.08125000  0.40949000  1.0 -0.5085683695
O  O2  1  0.48441000  0.59051000  0.00633000  1.0 -0.5085683695
O  O3  1  0.08125000  0.99367000  0.51559000  1.0 -0.5085683695
O  O4  1  0.59051000  0.48441000  0.91875000  1.0 -0.5085683695
O  O5  1  0.51559000  0.40949000  0.08125000  1.0 -0.5085683695
O  O6  1  0.00633000  0.91875000  0.48441000  1.0 -0.5085683695
O  O7  1  0.40949000  0.51559000  0.99367000  1.0 -0.5085683695
O  O8  1  0.91875000  0.00633000  0.59051000  1.0 -0.5085683695
O  O9  1  0.40949000  0.99367000  0.08125000  1.0 -0.5085683695
O  O10  1  0.48441000  0.91875000  0.59051000  1.0 -0.5085683695
O  O11  1  0.99367000  0.40949000  0.51559000  1.0 -0.5085683695
O  O12  1  0.91875000  0.48441000  0.00633000  1.0 -0.5085683695
O  O13  1  0.51559000  0.08125000  0.99367000  1.0 -0.5085683695
O  O14  1  0.59051000  0.00633000  0.48441000  1.0 -0.5085683695
O  O15  1  0.08125000  0.51559000  0.40949000  1.0 -0.5085683695
O  O16  1  0.00633000  0.59051000  0.91875000  1.0 -0.5085683695
O  O17  1  0.08125000  0.40949000  0.99367000  1.0 -0.5085683695
O  O18  1  0.59051000  0.91875000  0.00633000  1.0 -0.5085683695
O  O19  1  0.48441000  0.00633000  0.91875000  1.0 -0.5085683695
O  O20  1  0.91875000  0.59051000  0.48441000  1.0 -0.5085683695
O  O21  1  0.00633000  0.48441000  0.59051000  1.0 -0.5085683695
O  O22  1  0.51559000  0.99367000  0.40949000  1.0 -0.5085683695
O  O23  1  0.40949000  0.08125000  0.51559000  1.0 -0.5085683695
O  O24  1  0.99367000  0.51559000  0.08125000  1.0 -0.5085683695
O  O25  1  0.00633000  0.91875000  0.59051000  1.0 -0.5085683695
O  O26  1  0.51559000  0.40949000  0.99367000  1.0 -0.5085683695
O  O27  1  0.91875000  0.00633000  0.48441000  1.0 -0.5085683695
O  O28  1  0.40949000  0.51559000  0.08125000  1.0 -0.5085683695
O  O29  1  0.48441000  0.59051000  0.91875000  1.0 -0.5085683695
O  O30  1  0.99367000  0.08125000  0.51559000  1.0 -0.5085683695
O  O31  1  0.59051000  0.48441000  0.00633000  1.0 -0.5085683695
O  O32  1  0.08125000  0.99367000  0.40949000  1.0 -0.5085683695
O  O33  1  0.59051000  0.00633000  0.91875000  1.0 -0.5085683695
O  O34  1  0.51559000  0.08125000  0.40949000  1.0 -0.5085683695
O  O35  1  0.00633000  0.59051000  0.48441000  1.0 -0.5085683695
O  O36  1  0.08125000  0.51559000  0.99367000  1.0 -0.5085683695
O  O37  1  0.48441000  0.91875000  0.00633000  1.0 -0.5085683695
O  O38  1  0.40949000  0.99367000  0.51559000  1.0 -0.5085683695
O  O39  1  0.91875000  0.48441000  0.59051000  1.0 -0.5085683695
O  O40  1  0.99367000  0.40949000  0.08125000  1.0 -0.5085683695
O  O41  1  0.91875000  0.59051000  0.00633000  1.0 -0.5085683695
O  O42  1  0.40949000  0.08125000  0.99367000  1.0 -0.5085683695
O  O43  1  0.51559000  0.99367000  0.08125000  1.0 -0.5085683695
O  O44  1  0.08125000  0.40949000  0.51559000  1.0 -0.5085683695
O  O45  1  0.99367000  0.51559000  0.40949000  1.0 -0.5085683695
O  O46  1  0.48441000  0.00633000  0.59051000  1.0 -0.5085683695
O  O47  1  0.59051000  0.91875000  0.48441000  1.0 -0.5085683695
O  O48  1  0.00633000  0.48441000  0.91875000  1.0 -0.5085683695
