# DDEC6 charges by PACMAN v1.1 (https://github.com/mtap-research/PACMAN-charge/)
data_XOGXEY_FSR_pacman
_symmetry_space_group_name_H-M   'P 1'
_cell_length_a   12.07200000
_cell_length_b   14.12400000
_cell_length_c   14.33800000
_cell_angle_alpha   104.16000000
_cell_angle_beta   104.51000000
_cell_angle_gamma   114.40000000
_symmetry_Int_Tables_number   1
_chemical_formula_structural   Cd3H58C94S2(N3O7)2
_chemical_formula_sum   'Cd3 H58 C94 S2 N6 O14'
_cell_volume   1980.18546642
_cell_formula_units_Z   1
loop_
 _symmetry_equiv_pos_site_id
 _symmetry_equiv_pos_as_xyz
  1  'x, y, z'
loop_
 _atom_site_type_symbol
 _atom_site_label
 _atom_site_symmetry_multiplicity
 _atom_site_fract_x
 _atom_site_fract_y
 _atom_site_fract_z
 _atom_site_occupancy
 _atom_site_charge
Cd  Cd1  1  0.18790000  0.26569000  0.77799000  1.0 0.8590018476
Cd  Cd2  1  0.81210000  0.73431000  0.22201000  1.0 0.8590018476
Cd  Cd3  1  0.50000000  0.50000000  0.00000000  1.0 1.0579035605
H  H1  1  0.37150000  0.84900000  0.98180000  1.0 0.0908976513
H  H2  1  0.62850000  0.15100000  0.01820000  1.0 0.0908976513
H  H3  1  0.32510000  0.66990000  0.97370000  1.0 0.1210953208
H  H4  1  0.67490000  0.33010000  0.02630000  1.0 0.1210953208
H  H5  1  0.16300000  0.54800000  0.65900000  1.0 0.102914794
H  H6  1  0.83700000  0.45200000  0.34100000  1.0 0.102914794
H  H7  1  0.20940000  0.72720000  0.66710000  1.0 0.1101522042
H  H8  1  0.79060000  0.27280000  0.33290000  1.0 0.1101522042
H  H9  1  0.32680000  0.91110000  0.04000000  1.0 0.0818524422
H  H10  1  0.67320000  0.08890000  0.96000000  1.0 0.0818524422
H  H11  1  0.19740000  0.84530000  0.13830000  1.0 0.1210953208
H  H12  1  0.80260000  0.15470000  0.86170000  1.0 0.1210953208
H  H13  1  0.92530000  0.89440000  0.99980000  1.0 0.1101522042
H  H14  1  0.07470000  0.10560000  0.00020000  1.0 0.1101522042
H  H15  1  0.05070000  0.96880000  0.88270000  1.0 0.0908976513
H  H16  1  0.94930000  0.03120000  0.11730000  1.0 0.0908976513
H  H17  1  0.51140000  0.11500000  0.76600000  1.0 0.1101522042
H  H18  1  0.48860000  0.88500000  0.23400000  1.0 0.1101522042
H  H19  1  0.44020000  0.93150000  0.75090000  1.0 0.1101522042
H  H20  1  0.55980000  0.06850000  0.24910000  1.0 0.1101522042
H  H21  1  0.29620000  0.14080000  0.93270000  1.0 0.1210953208
H  H22  1  0.70380000  0.85920000  0.06730000  1.0 0.1210953208
H  H23  1  0.98290000  0.96230000  0.71270000  1.0 0.1330394546
H  H24  1  0.01710000  0.03770000  0.28730000  1.0 0.1330394546
H  H25  1  0.88240000  0.76560000  0.63310000  1.0 0.1101522042
H  H26  1  0.11760000  0.23440000  0.36690000  1.0 0.1101522042
H  H27  1  0.92970000  0.68210000  0.50070000  1.0 0.1101522042
H  H28  1  0.07030000  0.31790000  0.49930000  1.0 0.1101522042
H  H29  1  0.07750000  0.78930000  0.44350000  1.0 0.1376418645
H  H30  1  0.92250000  0.21070000  0.55650000  1.0 0.1376418645
H  H31  1  0.42820000  0.23080000  0.51940000  1.0 0.1616193528
H  H32  1  0.57180000  0.76920000  0.48060000  1.0 0.1616193528
H  H33  1  0.40090000  0.48750000  0.71610000  1.0 0.1376418645
H  H34  1  0.59910000  0.51250000  0.28390000  1.0 0.1376418645
H  H35  1  0.26860000  0.06810000  0.41810000  1.0 0.1210953208
H  H36  1  0.73140000  0.93190000  0.58190000  1.0 0.1210953208
H  H37  1  0.18690000  0.93710000  0.38500000  1.0 0.1330394546
H  H38  1  0.81310000  0.06290000  0.61500000  1.0 0.1330394546
H  H39  1  0.34850000  0.92010000  0.56910000  1.0 0.1210953208
H  H40  1  0.65150000  0.07990000  0.43090000  1.0 0.1210953208
H  H41  1  0.45410000  0.08040000  0.38600000  1.0 0.1210953208
H  H42  1  0.54590000  0.91960000  0.61400000  1.0 0.1210953208
H  H43  1  0.33250000  0.06500000  0.09180000  1.0 0.1101522042
H  H44  1  0.66750000  0.93500000  0.90820000  1.0 0.1101522042
H  H45  1  0.20560000  0.99260000  0.18250000  1.0 0.1101522042
H  H46  1  0.79440000  0.00740000  0.81750000  1.0 0.1101522042
H  H47  1  0.92770000  0.73510000  0.91120000  1.0 0.1101522042
H  H48  1  0.07230000  0.26490000  0.08880000  1.0 0.1101522042
H  H49  1  0.05830000  0.80540000  0.82420000  1.0 0.0818524422
H  H50  1  0.94170000  0.19460000  0.17580000  1.0 0.0818524422
H  H51  1  0.48820000  0.85280000  0.91020000  1.0 0.102914794
H  H52  1  0.51180000  0.14720000  0.08980000  1.0 0.102914794
H  H53  1  0.44910000  0.67880000  0.90250000  1.0 0.1101522042
H  H54  1  0.55090000  0.32120000  0.09750000  1.0 0.1101522042
H  H55  1  0.05930000  0.55380000  0.75790000  1.0 0.1210953208
H  H56  1  0.94070000  0.44620000  0.24210000  1.0 0.1210953208
H  H57  1  0.10030000  0.73340000  0.76380000  1.0 0.0908976513
H  H58  1  0.89970000  0.26660000  0.23620000  1.0 0.0908976513
C  C1  1  0.29510000  0.80580000  0.82530000  1.0 0.0212121647
C  C2  1  0.70490000  0.19420000  0.17470000  1.0 0.0212121647
C  C3  1  0.32970000  0.78870000  0.91710000  1.0 -0.0394873818
C  C4  1  0.67030000  0.21130000  0.08290000  1.0 -0.0394873818
C  C5  1  0.30190000  0.68130000  0.91220000  1.0 -0.0394873818
C  C6  1  0.69810000  0.31870000  0.08780000  1.0 -0.0394873818
C  C7  1  0.23940000  0.59120000  0.81550000  1.0 -0.0169911165
C  C8  1  0.76060000  0.40880000  0.18450000  1.0 -0.0169911165
C  C9  1  0.20480000  0.60830000  0.72370000  1.0 -0.0615016579
C  C10  1  0.79520000  0.39170000  0.27630000  1.0 -0.0615016579
C  C11  1  0.23260000  0.71570000  0.72850000  1.0 -0.0615016579
C  C12  1  0.76740000  0.28430000  0.27150000  1.0 -0.0615016579
C  C13  1  0.20260000  0.94270000  0.94910000  1.0 0.0212121647
C  C14  1  0.79740000  0.05730000  0.05090000  1.0 0.0212121647
C  C15  1  0.24550000  0.90800000  0.02540000  1.0 -0.0487723982
C  C16  1  0.75450000  0.09200000  0.97460000  1.0 -0.0487723982
C  C17  1  0.16560000  0.86580000  0.08510000  1.0 -0.0615016579
C  C18  1  0.83440000  0.13420000  0.91490000  1.0 -0.0615016579
C  C19  1  0.05130000  0.85830000  0.06130000  1.0 -0.006739415
C  C20  1  0.94870000  0.14170000  0.93870000  1.0 -0.006739415
C  C21  1  0.00320000  0.89430000  0.00340000  1.0 -0.0487723982
C  C22  1  0.99680000  0.10570000  0.99660000  1.0 -0.0487723982
C  C23  1  0.08280000  0.94330000  0.93100000  1.0 -0.0779517007
C  C24  1  0.91720000  0.05670000  0.06900000  1.0 -0.0779517007
C  C25  1  0.46260000  0.26820000  0.86580000  1.0 0.533454361
C  C26  1  0.53740000  0.73180000  0.13420000  1.0 0.533454361
C  C27  1  0.41250000  0.14740000  0.85330000  1.0 -0.0282115576
C  C28  1  0.58750000  0.85260000  0.14670000  1.0 -0.0282115576
C  C29  1  0.45510000  0.08370000  0.79750000  1.0 -0.1575951253
C  C30  1  0.54490000  0.91630000  0.20250000  1.0 -0.1575951253
C  C31  1  0.41300000  0.97390000  0.78940000  1.0 -0.2662284201
C  C32  1  0.58700000  0.02610000  0.21060000  1.0 -0.2662284201
C  C33  1  0.33060000  0.92490000  0.83760000  1.0 0.0110907477
C  C34  1  0.66940000  0.07510000  0.16240000  1.0 0.0110907477
C  C35  1  0.28780000  0.98850000  0.89340000  1.0 0.0212121647
C  C36  1  0.71220000  0.01150000  0.10660000  1.0 0.0212121647
C  C37  1  0.32770000  0.09940000  0.89840000  1.0 -0.2623521363
C  C38  1  0.67230000  0.90060000  0.10160000  1.0 -0.2623521363
C  C39  1  0.96700000  0.81190000  0.11910000  1.0 0.4240866626
C  C40  1  0.03300000  0.18810000  0.88090000  1.0 0.4240866626
C  C41  1  0.22070000  0.47820000  0.81140000  1.0 0.4463932986
C  C42  1  0.77930000  0.52180000  0.18860000  1.0 0.4463932986
C  C43  1  0.09130000  0.99230000  0.62520000  1.0 0.151108625
C  C44  1  0.90870000  0.00770000  0.37480000  1.0 0.151108625
C  C45  1  0.00240000  0.92860000  0.65960000  1.0 -0.2069763516
C  C46  1  0.99760000  0.07140000  0.34040000  1.0 -0.2069763516
C  C47  1  0.94270000  0.81120000  0.61140000  1.0 -0.13860969
C  C48  1  0.05730000  0.18880000  0.38860000  1.0 -0.13860969
C  C49  1  0.97140000  0.76060000  0.53120000  1.0 -0.0988993937
C  C50  1  0.02860000  0.23940000  0.46880000  1.0 -0.0988993937
C  C51  1  0.05870000  0.82320000  0.49690000  1.0 -0.1838263546
C  C52  1  0.94130000  0.17680000  0.50310000  1.0 -0.1838263546
C  C53  1  0.11890000  0.94030000  0.54480000  1.0 0.0908976513
C  C54  1  0.88110000  0.05970000  0.45520000  1.0 0.0908976513
C  C55  1  0.23380000  0.12620000  0.59670000  1.0 0.2279558803
C  C56  1  0.76620000  0.87380000  0.40330000  1.0 0.2279558803
C  C57  1  0.32170000  0.23870000  0.60630000  1.0 0.1210953208
C  C58  1  0.67830000  0.76130000  0.39370000  1.0 0.1210953208
C  C59  1  0.41000000  0.27670000  0.56410000  1.0 -0.2893150424
C  C60  1  0.59000000  0.72330000  0.43590000  1.0 -0.2893150424
C  C61  1  0.39340000  0.42070000  0.67630000  1.0 -0.0169911165
C  C62  1  0.60660000  0.57930000  0.32370000  1.0 -0.0169911165
C  C63  1  0.25550000  0.00790000  0.44300000  1.0 -0.1575951253
C  C64  1  0.74450000  0.99210000  0.55700000  1.0 -0.1575951253
C  C65  1  0.38410000  0.00480000  0.47470000  1.0 0.0908976513
C  C66  1  0.61590000  0.99520000  0.52530000  1.0 0.0908976513
C  C67  1  0.40950000  0.95310000  0.54170000  1.0 -0.1454457616
C  C68  1  0.59050000  0.04690000  0.45830000  1.0 -0.1454457616
C  C69  1  0.47280000  0.04850000  0.43290000  1.0 -0.1575951253
C  C70  1  0.52720000  0.95150000  0.56710000  1.0 -0.1575951253
C  C71  1  0.20430000  0.94350000  0.95140000  1.0 0.0212121647
C  C72  1  0.79570000  0.05650000  0.04860000  1.0 0.0212121647
C  C73  1  0.25040000  0.99880000  0.05590000  1.0 -0.0736523321
C  C74  1  0.74960000  0.00120000  0.94410000  1.0 -0.0736523321
C  C75  1  0.17220000  0.95490000  0.11020000  1.0 -0.0282115576
C  C76  1  0.82780000  0.04510000  0.88980000  1.0 -0.0282115576
C  C77  1  0.04860000  0.85850000  0.06040000  1.0 -0.006739415
C  C78  1  0.95140000  0.14150000  0.93960000  1.0 -0.006739415
C  C79  1  0.00870000  0.80220000  0.94880000  1.0 -0.0394873818
C  C80  1  0.99130000  0.19780000  0.05120000  1.0 -0.0394873818
C  C81  1  0.08600000  0.84400000  0.89580000  1.0 -0.0988993937
C  C82  1  0.91400000  0.15600000  0.10420000  1.0 -0.0988993937
C  C83  1  0.29750000  0.81140000  0.83490000  1.0 0.0110907477
C  C84  1  0.70250000  0.18860000  0.16510000  1.0 0.0110907477
C  C85  1  0.40140000  0.79230000  0.87770000  1.0 -0.0487723982
C  C86  1  0.59860000  0.20770000  0.12230000  1.0 -0.0487723982
C  C87  1  0.37840000  0.68800000  0.87280000  1.0 -0.0394873818
C  C88  1  0.62160000  0.31200000  0.12720000  1.0 -0.0394873818
C  C89  1  0.24950000  0.59460000  0.82390000  1.0 -0.0282115576
C  C90  1  0.75050000  0.40540000  0.17610000  1.0 -0.0282115576
C  C91  1  0.14620000  0.61350000  0.78650000  1.0 -0.0394873818
C  C92  1  0.85380000  0.38650000  0.21350000  1.0 -0.0394873818
C  C93  1  0.17070000  0.72280000  0.79090000  1.0 -0.0615016579
C  C94  1  0.82930000  0.27720000  0.20910000  1.0 -0.0615016579
S  S1  1  0.48360000  0.41800000  0.60230000  1.0 0.2211961994
S  S2  1  0.51640000  0.58200000  0.39770000  1.0 0.2211961994
N  N1  1  0.31450000  0.32420000  0.67320000  1.0 -0.2428207373
N  N2  1  0.68550000  0.67580000  0.32680000  1.0 -0.2428207373
N  N3  1  0.16510000  0.10890000  0.65640000  1.0 -0.4055514609
N  N4  1  0.83490000  0.89110000  0.34360000  1.0 -0.4049957668
N  N5  1  0.20860000  0.02550000  0.52690000  1.0 -0.0487723982
N  N6  1  0.79140000  0.97450000  0.47310000  1.0 -0.0487723982
O  O1  1  0.40230000  0.31450000  0.90090000  1.0 -0.5819463407
O  O2  1  0.59770000  0.68550000  0.09910000  1.0 -0.5819463407
O  O3  1  0.55860000  0.31740000  0.84400000  1.0 -0.4779110824
O  O4  1  0.44140000  0.68260000  0.15600000  1.0 -0.4779110824
O  O5  1  0.37090000  0.45320000  0.09260000  1.0 -0.3767081474
O  O6  1  0.62910000  0.54680000  0.90740000  1.0 -0.3767081474
O  O7  1  0.01510000  0.84840000  0.21290000  1.0 -0.469226328
O  O8  1  0.98490000  0.15160000  0.78710000  1.0 -0.469226328
O  O9  1  0.85070000  0.73800000  0.06840000  1.0 -0.4161139404
O  O10  1  0.14930000  0.26200000  0.93160000  1.0 -0.4161139404
O  O11  1  0.30900000  0.47200000  0.87520000  1.0 -0.5483430301
O  O12  1  0.69100000  0.52800000  0.12480000  1.0 -0.5483430301
O  O13  1  0.11910000  0.39180000  0.74300000  1.0 -0.4925540959
O  O14  1  0.88090000  0.60820000  0.25700000  1.0 -0.4925540959
