# DDEC6 charges by PACMAN v1.1 (https://github.com/mtap-research/PACMAN-charge/)
data_XOGXAU_FSR_pacman
_symmetry_space_group_name_H-M   'P 1'
_cell_length_a   13.96800000
_cell_length_b   14.61100000
_cell_length_c   20.56600000
_cell_angle_alpha   104.75000000
_cell_angle_beta   85.51000000
_cell_angle_gamma   111.00000000
_symmetry_Int_Tables_number   1
_chemical_formula_structural   Cd3H48C64(N2O7)2
_chemical_formula_sum   'Cd6 H96 C128 N8 O28'
_cell_volume   3788.94339285
_cell_formula_units_Z   2
loop_
 _symmetry_equiv_pos_site_id
 _symmetry_equiv_pos_as_xyz
  1  'x, y, z'
loop_
 _atom_site_type_symbol
 _atom_site_label
 _atom_site_symmetry_multiplicity
 _atom_site_fract_x
 _atom_site_fract_y
 _atom_site_fract_z
 _atom_site_occupancy
 _atom_site_charge
Cd  Cd1  1  0.52981000  0.26607000  0.04055000  1.0 0.9134925628
Cd  Cd2  1  0.47019000  0.73393000  0.95945000  1.0 0.9134925628
Cd  Cd3  1  0.99028000  0.23957000  0.44026000  1.0 0.9134925628
Cd  Cd4  1  0.00972000  0.76043000  0.55974000  1.0 0.9134925628
Cd  Cd5  1  0.00000000  0.50000000  0.50000000  1.0 1.1238643253
Cd  Cd6  1  0.50000000  0.00000000  0.00000000  1.0 1.1324323737
H  H1  1  0.58870000  0.41790000  0.28390000  1.0 0.1284533896
H  H2  1  0.41130000  0.58210000  0.71610000  1.0 0.1199316314
H  H3  1  0.54170000  0.42710000  0.39490000  1.0 0.1199316314
H  H4  1  0.45830000  0.57290000  0.60510000  1.0 0.1199316314
H  H5  1  0.26570000  0.22320000  0.33570000  1.0 0.1199316314
H  H6  1  0.73430000  0.77680000  0.66430000  1.0 0.1199316314
H  H7  1  0.31500000  0.20650000  0.22680000  1.0 0.1199316314
H  H8  1  0.68500000  0.79350000  0.77320000  1.0 0.1199316314
H  H9  1  0.23910000  0.36710000  0.43270000  1.0 0.1284533896
H  H10  1  0.76090000  0.63290000  0.56730000  1.0 0.1284533896
H  H11  1  0.27220000  0.37860000  0.62450000  1.0 0.1199316314
H  H12  1  0.72780000  0.62140000  0.37550000  1.0 0.1199316314
H  H13  1  0.41620000  0.33800000  0.59880000  1.0 0.1199316314
H  H14  1  0.58380000  0.66200000  0.40120000  1.0 0.1199316314
H  H15  1  0.59800000  0.43060000  0.55640000  1.0 0.1199316314
H  H16  1  0.40200000  0.56940000  0.44360000  1.0 0.1199316314
H  H17  1  0.75390000  0.40900000  0.53750000  1.0 0.1199316314
H  H18  1  0.24610000  0.59100000  0.46250000  1.0 0.1199316314
H  H19  1  0.62200000  0.15240000  0.39820000  1.0 0.1284533896
H  H20  1  0.37800000  0.84760000  0.60180000  1.0 0.1284533896
H  H21  1  0.46640000  0.17710000  0.41580000  1.0 0.1199316314
H  H22  1  0.53360000  0.82290000  0.58420000  1.0 0.1199316314
H  H23  1  0.77290000  0.09210000  0.05900000  1.0 0.1199316314
H  H24  1  0.22710000  0.90790000  0.94100000  1.0 0.1199316314
H  H25  1  0.92820000  0.07130000  0.04420000  1.0 0.1199316314
H  H26  1  0.07180000  0.92870000  0.95580000  1.0 0.1199316314
H  H27  1  0.02630000  0.29000000  0.94600000  1.0 0.1199316314
H  H28  1  0.97370000  0.71000000  0.05400000  1.0 0.1199316314
H  H29  1  0.86770000  0.30850000  0.95910000  1.0 0.1284533896
H  H30  1  0.13230000  0.69150000  0.04090000  1.0 0.1284533896
H  H31  1  0.09240000  0.15130000  0.88010000  1.0 0.1112866212
H  H32  1  0.90760000  0.84870000  0.11990000  1.0 0.1112866212
H  H33  1  0.23680000  0.11000000  0.85360000  1.0 0.1199316314
H  H34  1  0.76320000  0.89000000  0.14640000  1.0 0.1199316314
H  H35  1  0.28090000  0.13030000  0.04730000  1.0 0.1284533896
H  H36  1  0.71910000  0.86970000  0.95270000  1.0 0.1284533896
H  H37  1  0.12970000  0.04070000  0.11650000  1.0 0.1199316314
H  H38  1  0.87030000  0.95930000  0.88350000  1.0 0.1199316314
H  H39  1  0.08350000  0.06250000  0.22770000  1.0 0.1199316314
H  H40  1  0.91650000  0.93750000  0.77230000  1.0 0.1199316314
H  H41  1  0.05980000  0.32420000  0.22470000  1.0 0.1284533896
H  H42  1  0.94020000  0.67580000  0.77530000  1.0 0.1284533896
H  H43  1  0.10350000  0.30320000  0.11350000  1.0 0.1199316314
H  H44  1  0.89650000  0.69680000  0.88650000  1.0 0.1199316314
H  H45  1  0.62160000  0.30700000  0.90060000  1.0 0.1581987613
H  H46  1  0.37840000  0.69300000  0.09940000  1.0 0.1581987613
H  H47  1  0.58370000  0.32190000  0.83560000  1.0 0.1284533896
H  H48  1  0.41630000  0.67810000  0.16440000  1.0 0.1284533896
H  H49  1  0.52940000  0.22100000  0.85820000  1.0 0.1680176356
H  H50  1  0.47060000  0.77900000  0.14180000  1.0 0.1680176356
H  H51  1  0.35650000  0.37610000  0.09400000  1.0 0.1399623477
H  H52  1  0.64350000  0.62390000  0.90600000  1.0 0.1399623477
H  H53  1  0.24770000  0.46600000  0.10080000  1.0 0.1199316314
H  H54  1  0.75230000  0.53400000  0.89920000  1.0 0.1199316314
H  H55  1  0.21330000  0.51240000  0.00920000  1.0 0.1199316314
H  H56  1  0.78670000  0.48760000  0.99080000  1.0 0.1199316314
H  H57  1  0.29870000  0.48950000  0.91130000  1.0 0.1399623477
H  H58  1  0.70130000  0.51050000  0.08870000  1.0 0.1399623477
H  H59  1  0.52030000  0.42000000  0.81110000  1.0 0.1199316314
H  H60  1  0.47970000  0.58000000  0.18890000  1.0 0.1199316314
H  H61  1  0.43350000  0.46660000  0.82760000  1.0 0.1199316314
H  H62  1  0.56650000  0.53340000  0.17240000  1.0 0.1199316314
H  H63  1  0.40230000  0.33060000  0.72730000  1.0 0.1112866212
H  H64  1  0.59770000  0.66940000  0.27270000  1.0 0.1112866212
H  H65  1  0.38890000  0.25710000  0.77360000  1.0 0.1199316314
H  H66  1  0.61110000  0.74290000  0.22640000  1.0 0.1199316314
H  H67  1  0.25850000  0.36390000  0.77290000  1.0 0.1199316314
H  H68  1  0.74150000  0.63610000  0.22710000  1.0 0.1199316314
H  H69  1  0.24550000  0.29200000  0.82050000  1.0 0.1112866212
H  H70  1  0.75450000  0.70800000  0.17950000  1.0 0.1112866212
H  H71  1  0.22850000  0.22470000  0.68000000  1.0 0.1112866212
H  H72  1  0.77150000  0.77530000  0.32000000  1.0 0.1112866212
H  H73  1  0.21040000  0.15420000  0.72900000  1.0 0.1112866212
H  H74  1  0.78960000  0.84580000  0.27100000  1.0 0.1112866212
H  H75  1  0.08670000  0.26200000  0.72010000  1.0 0.1199316314
H  H76  1  0.91330000  0.73800000  0.27990000  1.0 0.1199316314
H  H77  1  0.06890000  0.19260000  0.76980000  1.0 0.1112866212
H  H78  1  0.93110000  0.80740000  0.23020000  1.0 0.1112866212
H  H79  1  0.03430000  0.05000000  0.67460000  1.0 0.1199316314
H  H80  1  0.96570000  0.95000000  0.32540000  1.0 0.1199316314
H  H81  1  0.95260000  0.10320000  0.68380000  1.0 0.1199316314
H  H82  1  0.04740000  0.89680000  0.31620000  1.0 0.1199316314
H  H83  1  0.89050000  0.23010000  0.57350000  1.0 0.1547102654
H  H84  1  0.10950000  0.76990000  0.42650000  1.0 0.1547102654
H  H85  1  0.96640000  0.29110000  0.63460000  1.0 0.1680176356
H  H86  1  0.03360000  0.70890000  0.36540000  1.0 0.1680176356
H  H87  1  0.88500000  0.18480000  0.63570000  1.0 0.1284533896
H  H88  1  0.11500000  0.81520000  0.36430000  1.0 0.1284533896
H  H89  1  0.17430000  0.01890000  0.60470000  1.0 0.1399623477
H  H90  1  0.82570000  0.98110000  0.39530000  1.0 0.1399623477
H  H91  1  0.27360000  0.98320000  0.51340000  1.0 0.1199316314
H  H92  1  0.72640000  0.01680000  0.48660000  1.0 0.1199316314
H  H93  1  0.26150000  0.02780000  0.41450000  1.0 0.1112866212
H  H94  1  0.73850000  0.97220000  0.58550000  1.0 0.1112866212
H  H95  1  0.15260000  0.11200000  0.40670000  1.0 0.1399623477
H  H96  1  0.84740000  0.88800000  0.59330000  1.0 0.1399623477
C  C1  1  0.48590000  0.29710000  0.17070000  1.0 0.5248788917
C  C2  1  0.51410000  0.70290000  0.82930000  1.0 0.5248788917
C  C3  1  0.45870000  0.31070000  0.24310000  1.0 -0.0221391709
C  C4  1  0.54130000  0.68930000  0.75690000  1.0 -0.0221391709
C  C5  1  0.52400000  0.37690000  0.29400000  1.0 -0.0998051076
C  C6  1  0.47600000  0.62310000  0.70600000  1.0 -0.0998051076
C  C7  1  0.49510000  0.38370000  0.36090000  1.0 -0.1421010023
C  C8  1  0.50490000  0.61630000  0.63910000  1.0 -0.1421010023
C  C9  1  0.39990000  0.32780000  0.37710000  1.0 0.0704744655
C  C10  1  0.60010000  0.67220000  0.62290000  1.0 0.0704744655
C  C11  1  0.33160000  0.26140000  0.32540000  1.0 -0.1421010023
C  C12  1  0.66840000  0.73860000  0.67460000  1.0 -0.1421010023
C  C13  1  0.36070000  0.25240000  0.26050000  1.0 -0.0998051076
C  C14  1  0.63930000  0.74760000  0.73950000  1.0 -0.0998051076
C  C15  1  0.36480000  0.33830000  0.44890000  1.0 0.031232076
C  C16  1  0.63520000  0.66170000  0.55110000  1.0 0.031232076
C  C17  1  0.27680000  0.36310000  0.46650000  1.0 -0.1510698126
C  C18  1  0.72320000  0.63690000  0.53350000  1.0 -0.1510698126
C  C19  1  0.24420000  0.38160000  0.53070000  1.0 -0.0264802882
C  C20  1  0.75580000  0.61840000  0.46930000  1.0 -0.0264802882
C  C21  1  0.15480000  0.41680000  0.54750000  1.0 0.5497083986
C  C22  1  0.84520000  0.58320000  0.45250000  1.0 0.5497083986
C  C23  1  0.29550000  0.36970000  0.58060000  1.0 -0.1177549426
C  C24  1  0.70450000  0.63030000  0.41940000  1.0 -0.1177549426
C  C25  1  0.38110000  0.34440000  0.56460000  1.0 -0.1510698126
C  C26  1  0.61890000  0.65560000  0.43540000  1.0 -0.1510698126
C  C27  1  0.41790000  0.32780000  0.49950000  1.0 0.031232076
C  C28  1  0.58210000  0.67220000  0.50050000  1.0 0.031232076
C  C29  1  0.51730000  0.30860000  0.48680000  1.0 0.0704744655
C  C30  1  0.48270000  0.69140000  0.51320000  1.0 0.0646142909
C  C31  1  0.60310000  0.37540000  0.52370000  1.0 -0.1510698126
C  C32  1  0.39690000  0.62460000  0.47630000  1.0 -0.1510698126
C  C33  1  0.69620000  0.36220000  0.51300000  1.0 -0.0820544649
C  C34  1  0.30380000  0.63780000  0.48700000  1.0 -0.0895466259
C  C35  1  0.70380000  0.27840000  0.46540000  1.0 -0.0221391709
C  C36  1  0.29620000  0.72160000  0.53460000  1.0 -0.0221391709
C  C37  1  0.61760000  0.20920000  0.42950000  1.0 -0.0895466259
C  C38  1  0.38240000  0.79080000  0.57050000  1.0 -0.0895466259
C  C39  1  0.52440000  0.22400000  0.44010000  1.0 -0.1421010023
C  C40  1  0.47560000  0.77600000  0.55990000  1.0 -0.1510698126
C  C41  1  0.80330000  0.26090000  0.45380000  1.0 0.5656950795
C  C42  1  0.19670000  0.73910000  0.54620000  1.0 0.5656950795
C  C43  1  0.70210000  0.21550000  0.02120000  1.0 0.5632534647
C  C44  1  0.29790000  0.78450000  0.97880000  1.0 0.5632534647
C  C45  1  0.80410000  0.20240000  0.01030000  1.0 -0.0221391709
C  C46  1  0.19590000  0.79760000  0.98970000  1.0 -0.0221391709
C  C47  1  0.82380000  0.13180000  0.03560000  1.0 -0.0820544649
C  C48  1  0.17620000  0.86820000  0.96440000  1.0 -0.0820544649
C  C49  1  0.91700000  0.11950000  0.02680000  1.0 -0.1421010023
C  C50  1  0.08300000  0.88050000  0.97320000  1.0 -0.1421010023
C  C51  1  0.99510000  0.17710000  0.99260000  1.0 0.0646142909
C  C52  1  0.00490000  0.82290000  0.00740000  1.0 0.0646142909
C  C53  1  0.97500000  0.24890000  0.96830000  1.0 -0.1603349722
C  C54  1  0.02500000  0.75110000  0.03170000  1.0 -0.1603349722
C  C55  1  0.87970000  0.26080000  0.97660000  1.0 -0.0998051076
C  C56  1  0.12030000  0.73920000  0.02340000  1.0 -0.0998051076
C  C57  1  0.09410000  0.16010000  0.97940000  1.0 0.0246379418
C  C58  1  0.90590000  0.83990000  0.02060000  1.0 0.031232076
C  C59  1  0.12880000  0.14540000  0.91380000  1.0 -0.1603349722
C  C60  1  0.87120000  0.85460000  0.08620000  1.0 -0.1603349722
C  C61  1  0.21600000  0.12220000  0.89800000  1.0 -0.1177549426
C  C62  1  0.78400000  0.87780000  0.10200000  1.0 -0.1177549426
C  C63  1  0.27350000  0.11690000  0.94830000  1.0 -0.0221391709
C  C64  1  0.72650000  0.88310000  0.05170000  1.0 -0.0221391709
C  C65  1  0.37080000  0.09080000  0.93140000  1.0 0.5444537723
C  C66  1  0.62920000  0.90920000  0.06860000  1.0 0.5444537723
C  C67  1  0.24180000  0.13310000  0.01370000  1.0 -0.1510698126
C  C68  1  0.75820000  0.86690000  0.98630000  1.0 -0.1510698126
C  C69  1  0.15140000  0.15380000  0.03060000  1.0 0.031232076
C  C70  1  0.84860000  0.84620000  0.96940000  1.0 0.031232076
C  C71  1  0.12100000  0.16910000  0.10250000  1.0 0.0793493283
C  C72  1  0.87900000  0.83090000  0.89750000  1.0 0.0793493283
C  C73  1  0.11510000  0.09820000  0.13810000  1.0 -0.1421010023
C  C74  1  0.88490000  0.90180000  0.86190000  1.0 -0.1421010023
C  C75  1  0.08780000  0.11150000  0.20510000  1.0 -0.1087536441
C  C76  1  0.91220000  0.88850000  0.79490000  1.0 -0.1087536441
C  C77  1  0.06720000  0.19540000  0.23830000  1.0 -0.0264802882
C  C78  1  0.93280000  0.80460000  0.76170000  1.0 -0.0264802882
C  C79  1  0.07370000  0.26640000  0.20270000  1.0 -0.0998051076
C  C80  1  0.92630000  0.73360000  0.79730000  1.0 -0.0998051076
C  C81  1  0.10000000  0.25430000  0.13590000  1.0 -0.1421010023
C  C82  1  0.90000000  0.74570000  0.86410000  1.0 -0.1421010023
C  C83  1  0.04000000  0.21120000  0.31080000  1.0 0.5274238908
C  C84  1  0.96000000  0.78880000  0.68920000  1.0 0.5274238908
C  C85  1  0.56260000  0.29280000  0.87360000  1.0 -0.5395570672
C  C86  1  0.43740000  0.70720000  0.12640000  1.0 -0.5395570672
C  C87  1  0.48900000  0.33770000  0.91500000  1.0 0.355890634
C  C88  1  0.51100000  0.66230000  0.08500000  1.0 0.355890634
C  C89  1  0.39340000  0.38220000  0.99790000  1.0 0.1284533896
C  C90  1  0.60660000  0.61780000  0.00210000  1.0 0.1284533896
C  C91  1  0.34570000  0.39850000  0.05770000  1.0 -0.1704636814
C  C92  1  0.65430000  0.60150000  0.94230000  1.0 -0.1704636814
C  C93  1  0.28040000  0.45040000  0.06050000  1.0 -0.1087536441
C  C94  1  0.71960000  0.54960000  0.93950000  1.0 -0.1087536441
C  C95  1  0.26120000  0.48080000  0.00530000  1.0 -0.0895466259
C  C96  1  0.73880000  0.51920000  0.99470000  1.0 -0.0895466259
C  C97  1  0.30960000  0.46580000  0.94700000  1.0 -0.1888717762
C  C98  1  0.69040000  0.53420000  0.05300000  1.0 -0.1888717762
C  C99  1  0.37630000  0.41360000  0.94170000  1.0 0.0793493283
C  C100  1  0.62370000  0.58640000  0.05830000  1.0 0.0793493283
C  C101  1  0.44940000  0.40630000  0.82460000  1.0 -0.0998051076
C  C102  1  0.55060000  0.59370000  0.17540000  1.0 -0.0998051076
C  C103  1  0.37970000  0.31890000  0.77120000  1.0 -0.1888717762
C  C104  1  0.62030000  0.68110000  0.22880000  1.0 -0.1888717762
C  C105  1  0.26840000  0.30290000  0.77640000  1.0 -0.1704636814
C  C106  1  0.73160000  0.69710000  0.22360000  1.0 -0.1704636814
C  C107  1  0.20270000  0.21540000  0.72390000  1.0 -0.1704636814
C  C108  1  0.79730000  0.78460000  0.27610000  1.0 -0.1704636814
C  C109  1  0.09390000  0.20070000  0.72550000  1.0 -0.1888717762
C  C110  1  0.90610000  0.79930000  0.27450000  1.0 -0.1888717762
C  C111  1  0.02370000  0.11160000  0.67330000  1.0 -0.1087536441
C  C112  1  0.97630000  0.88840000  0.32670000  1.0 -0.1087536441
C  C113  1  0.93000000  0.22480000  0.60770000  1.0 -0.5294539607
C  C114  1  0.07000000  0.77520000  0.39230000  1.0 -0.5294539607
C  C115  1  0.00350000  0.17680000  0.57590000  1.0 0.3293814087
C  C116  1  0.99650000  0.82320000  0.42410000  1.0 0.3293814087
C  C117  1  0.10610000  0.09330000  0.56170000  1.0 0.0921820128
C  C118  1  0.89390000  0.90670000  0.43830000  1.0 0.0921820128
C  C119  1  0.17110000  0.03900000  0.56580000  1.0 -0.1888717762
C  C120  1  0.82890000  0.96100000  0.43420000  1.0 -0.1888717762
C  C121  1  0.22920000  0.01680000  0.51090000  1.0 -0.0895466259
C  C122  1  0.77080000  0.98320000  0.48910000  1.0 -0.0820544649
C  C123  1  0.22230000  0.04420000  0.45120000  1.0 -0.1177549426
C  C124  1  0.77770000  0.95580000  0.54880000  1.0 -0.1177549426
C  C125  1  0.15810000  0.09500000  0.44650000  1.0 -0.1759703881
C  C126  1  0.84190000  0.90500000  0.55350000  1.0 -0.1759703881
C  C127  1  0.10200000  0.12030000  0.50190000  1.0 0.1284533896
C  C128  1  0.89800000  0.87970000  0.49810000  1.0 0.1284533896
N  N1  1  0.46650000  0.33610000  0.97880000  1.0 -0.4470699108
N  N2  1  0.53350000  0.66390000  0.02120000  1.0 -0.4470699108
N  N3  1  0.43730000  0.38390000  0.89010000  1.0 -0.0820544649
N  N4  1  0.56270000  0.61610000  0.10990000  1.0 -0.0820544649
N  N5  1  0.04600000  0.12990000  0.60660000  1.0 -0.0560572701
N  N6  1  0.95400000  0.87010000  0.39340000  1.0 -0.0560572701
N  N7  1  0.03720000  0.17480000  0.51270000  1.0 -0.4317494905
N  N8  1  0.96280000  0.82520000  0.48730000  1.0 -0.4317494905
O  O1  1  0.62930000  0.15400000  0.04490000  1.0 -0.5513612903
O  O2  1  0.37070000  0.84600000  0.95510000  1.0 -0.5513612903
O  O3  1  0.69070000  0.28810000  0.00620000  1.0 -0.5189774907
O  O4  1  0.30930000  0.71190000  0.99380000  1.0 -0.5189774907
O  O5  1  0.56300000  0.36080000  0.15410000  1.0 -0.5395570672
O  O6  1  0.43700000  0.63920000  0.84590000  1.0 -0.5395570672
O  O7  1  0.43290000  0.21920000  0.12870000  1.0 -0.4895687676
O  O8  1  0.56710000  0.78080000  0.87130000  1.0 -0.4895687676
O  O9  1  0.43150000  0.01730000  0.10420000  1.0 -0.2091333842
O  O10  1  0.56850000  0.98270000  0.89580000  1.0 -0.2091333842
O  O11  1  0.02420000  0.48520000  0.38820000  1.0 -0.1314531169
O  O12  1  0.97580000  0.51480000  0.61180000  1.0 -0.1314531169
O  O13  1  0.09900000  0.40820000  0.49780000  1.0 -0.605673281
O  O14  1  0.90100000  0.59180000  0.50220000  1.0 -0.605673281
O  O15  1  0.13910000  0.45560000  0.60690000  1.0 -0.4817782617
O  O16  1  0.86090000  0.54440000  0.39310000  1.0 -0.4817782617
O  O17  1  0.80850000  0.17820000  0.42290000  1.0 -0.5189774907
O  O18  1  0.19150000  0.82180000  0.57710000  1.0 -0.5189774907
O  O19  1  0.88400000  0.33340000  0.47910000  1.0 -0.5835979855
O  O20  1  0.11600000  0.66666667  0.52090000  1.0 -0.5835979855
O  O21  1  0.03110000  0.29340000  0.34190000  1.0 -0.4667256749
O  O22  1  0.96890000  0.70660000  0.65810000  1.0 -0.4667256749
O  O23  1  0.03080000  0.14470000  0.34030000  1.0 -0.5513612903
O  O24  1  0.96920000  0.85530000  0.65970000  1.0 -0.5513612903
O  O25  1  0.42760000  0.10430000  0.98110000  1.0 -0.5858964598
O  O26  1  0.57240000  0.89570000  0.01890000  1.0 -0.5858964598
O  O27  1  0.38590000  0.05340000  0.87360000  1.0 -0.4596186555
O  O28  1  0.61410000  0.94660000  0.12640000  1.0 -0.4596186555
