# DDEC6 charges by PACMAN v1.1 (https://github.com/mtap-research/PACMAN-charge/)
data_XOHQUJ_FSR_pacman
_symmetry_space_group_name_H-M   'P 1'
_cell_length_a   11.09900000
_cell_length_b   12.50600000
_cell_length_c   15.03050000
_cell_angle_alpha   62.44370000
_cell_angle_beta   72.54580000
_cell_angle_gamma   70.53100000
_symmetry_Int_Tables_number   1
_chemical_formula_structural   CoH22C28(N3O2)2
_chemical_formula_sum   'Co2 H44 C56 N12 O8'
_cell_volume   1717.14414542
_cell_formula_units_Z   2
loop_
 _symmetry_equiv_pos_site_id
 _symmetry_equiv_pos_as_xyz
  1  'x, y, z'
loop_
 _atom_site_type_symbol
 _atom_site_label
 _atom_site_symmetry_multiplicity
 _atom_site_fract_x
 _atom_site_fract_y
 _atom_site_fract_z
 _atom_site_occupancy
 _atom_site_charge
Co  Co1  1  0.48501000  0.59901000  0.69615000  1.0 0.8222729452
Co  Co2  1  0.51499000  0.40099000  0.30385000  1.0 0.8222729452
H  H1  1  0.59120000  0.85350000  0.23520000  1.0 0.1197195689
H  H2  1  0.64680000  0.70690000  0.28480000  1.0 0.1295326464
H  H3  1  0.18380000  0.53340000  0.54340000  1.0 0.1197195689
H  H4  1  0.59960000  0.60420000  0.47580000  1.0 0.1197195689
H  H5  1  0.61910000  0.56180000  0.95730000  1.0 0.1197195689
H  H6  1  0.66780000  0.58300000  0.08720000  1.0 0.1197195689
H  H7  1  0.60700000  0.77490000  0.09790000  1.0 0.1107970216
H  H8  1  0.44000000  0.92590000  0.84630000  1.0 0.1197195689
H  H9  1  0.56790000  0.96930000  0.36320000  1.0 0.1370565333
H  H10  1  0.50770000  0.89030000  0.55100000  1.0 0.1295326464
H  H11  1  0.32510000  0.60230000  0.15300000  1.0 0.1197195689
H  H12  1  0.77210000  0.87980000  0.09270000  1.0 0.1197195689
H  H13  1  0.80360000  0.56600000  0.67680000  1.0 0.1197195689
H  H14  1  0.41680000  0.63820000  0.37260000  1.0 0.1295326464
H  H15  1  0.27920000  0.84070000  0.27440000  1.0 0.1295326464
H  H16  1  0.84240000  0.73970000  0.37770000  1.0 0.1197195689
H  H17  1  0.06070000  0.59450000  0.80250000  1.0 0.1197195689
H  H18  1  0.05640000  0.76050000  0.31240000  1.0 0.1107970216
H  H19  1  0.21190000  0.83180000  0.05270000  1.0 0.1197195689
H  H20  1  0.18810000  0.92820000  0.10180000  1.0 0.1197195689
H  H21  1  0.98790000  0.89380000  0.02810000  1.0 0.1197195689
H  H22  1  0.84970000  0.59270000  0.80650000  1.0 0.1197195689
H  H23  1  0.40880000  0.14650000  0.76480000  1.0 0.1197195689
H  H24  1  0.35320000  0.29310000  0.71520000  1.0 0.1295326464
H  H25  1  0.81620000  0.46660000  0.45660000  1.0 0.1197195689
H  H26  1  0.40040000  0.39580000  0.52420000  1.0 0.1197195689
H  H27  1  0.38090000  0.43820000  0.04270000  1.0 0.1197195689
H  H28  1  0.33220000  0.41700000  0.91280000  1.0 0.1197195689
H  H29  1  0.39300000  0.22510000  0.90210000  1.0 0.1107970216
H  H30  1  0.56000000  0.07410000  0.15370000  1.0 0.1197195689
H  H31  1  0.43210000  0.03070000  0.63680000  1.0 0.1370565333
H  H32  1  0.49230000  0.10970000  0.44900000  1.0 0.1295326464
H  H33  1  0.67490000  0.39770000  0.84700000  1.0 0.1197195689
H  H34  1  0.22790000  0.12020000  0.90730000  1.0 0.1197195689
H  H35  1  0.19640000  0.43400000  0.32320000  1.0 0.1197195689
H  H36  1  0.58320000  0.36180000  0.62740000  1.0 0.1295326464
H  H37  1  0.72080000  0.15930000  0.72560000  1.0 0.1295326464
H  H38  1  0.15760000  0.26030000  0.62230000  1.0 0.1197195689
H  H39  1  0.93930000  0.40550000  0.19750000  1.0 0.1197195689
H  H40  1  0.94360000  0.23950000  0.68760000  1.0 0.1107970216
H  H41  1  0.78810000  0.16820000  0.94730000  1.0 0.1197195689
H  H42  1  0.81190000  0.07180000  0.89820000  1.0 0.1197195689
H  H43  1  0.01210000  0.10620000  0.97190000  1.0 0.1197195689
H  H44  1  0.15030000  0.40730000  0.19350000  1.0 0.1197195689
C  C1  1  0.64840000  0.78660000  0.28280000  1.0 -0.1693765446
C  C2  1  0.52790000  0.74410000  0.88660000  1.0 -0.004276765
C  C3  1  0.11600000  0.54670000  0.59610000  1.0 -0.1780868582
C  C4  1  0.58260000  0.68600000  0.47160000  1.0 0.0976864038
C  C5  1  0.59410000  0.64060000  0.96050000  1.0 -0.1103016995
C  C6  1  0.14170000  0.56740000  0.67100000  1.0 -0.0087281298
C  C7  1  0.78640000  0.80540000  0.24210000  1.0 0.1107970216
C  C8  1  0.49420000  0.73280000  0.80030000  1.0 0.5563748963
C  C9  1  0.27830000  0.56840000  0.66740000  1.0 0.5388913639
C  C10  1  0.52180000  0.87070000  0.97130000  1.0 0.1626735516
C  C11  1  0.62280000  0.65340000  0.03760000  1.0 -0.0801857673
C  C12  1  0.98830000  0.54580000  0.59900000  1.0 0.1626735516
C  C13  1  0.58700000  0.76750000  0.04410000  1.0 -0.1615550034
C  C14  1  0.48920000  0.85680000  0.89380000  1.0 -0.19100089
C  C15  1  0.04330000  0.82820000  0.16310000  1.0 0.0976864038
C  C16  1  0.56640000  0.88600000  0.40890000  1.0 -0.1103016995
C  C17  1  0.53290000  0.84210000  0.51190000  1.0 -0.029772114
C  C18  1  0.33180000  0.63600000  0.19600000  1.0 0.0976864038
C  C19  1  0.83010000  0.85320000  0.13820000  1.0 -0.1496332474
C  C20  1  0.88990000  0.56470000  0.67610000  1.0 -0.1496332474
C  C21  1  0.38170000  0.65600000  0.31560000  1.0 -0.029772114
C  C22  1  0.30550000  0.76760000  0.26200000  1.0 -0.1047517396
C  C23  1  0.87140000  0.77150000  0.30610000  1.0 -0.1285393499
C  C24  1  0.04220000  0.58310000  0.75010000  1.0 -0.1103016995
C  C25  1  0.99920000  0.78330000  0.26730000  1.0 -0.1391991414
C  C26  1  0.18450000  0.84320000  0.11740000  1.0 -0.1693765446
C  C27  1  0.95860000  0.86270000  0.09980000  1.0 -0.1615550034
C  C28  1  0.91700000  0.58180000  0.75270000  1.0 -0.0801857673
C  C29  1  0.35160000  0.21340000  0.71720000  1.0 -0.1693765446
C  C30  1  0.47210000  0.25590000  0.11340000  1.0 -0.004276765
C  C31  1  0.88400000  0.45330000  0.40390000  1.0 -0.1780868582
C  C32  1  0.41740000  0.31400000  0.52840000  1.0 0.0976864038
C  C33  1  0.40590000  0.35940000  0.03950000  1.0 -0.1103016995
C  C34  1  0.85830000  0.43260000  0.32900000  1.0 -0.0087281298
C  C35  1  0.21360000  0.19460000  0.75790000  1.0 0.1107970216
C  C36  1  0.50580000  0.26720000  0.19970000  1.0 0.5563748963
C  C37  1  0.72170000  0.43160000  0.33260000  1.0 0.5388913639
C  C38  1  0.47820000  0.12930000  0.02870000  1.0 0.1626735516
C  C39  1  0.37720000  0.34660000  0.96240000  1.0 -0.0801857673
C  C40  1  0.01170000  0.45420000  0.40100000  1.0 0.1626735516
C  C41  1  0.41300000  0.23250000  0.95590000  1.0 -0.1615550034
C  C42  1  0.51080000  0.14320000  0.10620000  1.0 -0.19100089
C  C43  1  0.95670000  0.17180000  0.83690000  1.0 0.0976864038
C  C44  1  0.43360000  0.11400000  0.59110000  1.0 -0.1103016995
C  C45  1  0.46710000  0.15790000  0.48810000  1.0 -0.029772114
C  C46  1  0.66820000  0.36400000  0.80400000  1.0 0.0976864038
C  C47  1  0.16990000  0.14680000  0.86180000  1.0 -0.1496332474
C  C48  1  0.11010000  0.43530000  0.32390000  1.0 -0.1496332474
C  C49  1  0.61830000  0.34400000  0.68440000  1.0 -0.029772114
C  C50  1  0.69450000  0.23240000  0.73800000  1.0 -0.1047517396
C  C51  1  0.12860000  0.22850000  0.69390000  1.0 -0.1285393499
C  C52  1  0.95780000  0.41690000  0.24990000  1.0 -0.1103016995
C  C53  1  0.00080000  0.21670000  0.73270000  1.0 -0.1391991414
C  C54  1  0.81550000  0.15680000  0.88260000  1.0 -0.1693765446
C  C55  1  0.04140000  0.13730000  0.90020000  1.0 -0.1615550034
C  C56  1  0.08300000  0.41820000  0.24730000  1.0 -0.0801857673
N  N1  1  0.59760000  0.78630000  0.38350000  1.0 0.045927045
N  N2  1  0.39870000  0.57390000  0.27260000  1.0 -0.3194040917
N  N3  1  0.54140000  0.71530000  0.55130000  1.0 -0.3194040917
N  N4  1  0.27510000  0.75270000  0.18800000  1.0 0.045927045
N  N5  1  0.47860000  0.99380000  0.96870000  1.0 -0.1496332474
N  N6  1  0.95290000  0.52230000  0.52650000  1.0 -0.1391991414
N  N7  1  0.40240000  0.21370000  0.61650000  1.0 0.045927045
N  N8  1  0.60130000  0.42610000  0.72740000  1.0 -0.3194040917
N  N9  1  0.45860000  0.28470000  0.44870000  1.0 -0.3194040917
N  N10  1  0.72490000  0.24730000  0.81200000  1.0 0.045927045
N  N11  1  0.52140000  0.00620000  0.03130000  1.0 -0.1496332474
N  N12  1  0.04710000  0.47770000  0.47350000  1.0 -0.1391991414
O  O1  1  0.29570000  0.60330000  0.73020000  1.0 -0.5336544029
O  O2  1  0.42920000  0.82330000  0.74020000  1.0 -0.5480738394
O  O3  1  0.36930000  0.53770000  0.60500000  1.0 -0.5574463121
O  O4  1  0.53770000  0.62290000  0.79820000  1.0 -0.5778228752
O  O5  1  0.70430000  0.39670000  0.26980000  1.0 -0.5336544029
O  O6  1  0.57080000  0.17670000  0.25980000  1.0 -0.5480738394
O  O7  1  0.63070000  0.46230000  0.39500000  1.0 -0.5574463121
O  O8  1  0.46230000  0.37710000  0.20180000  1.0 -0.5778228752
