# DDEC6 charges by PACMAN v1.1 (https://github.com/mtap-research/PACMAN-charge/)
data_XOMCIN_FSR_pacman
_symmetry_space_group_name_H-M   'P 1'
_cell_length_a   10.94950000
_cell_length_b   22.08560000
_cell_length_c   28.33140000
_cell_angle_alpha   100.49600000
_cell_angle_beta   99.54200000
_cell_angle_gamma   101.67400000
_symmetry_Int_Tables_number   1
_chemical_formula_structural   Ni6H70C87(NO4)8
_chemical_formula_sum   'Ni12 H140 C174 N16 O64'
_cell_volume   6449.56681135
_cell_formula_units_Z   2
loop_
 _symmetry_equiv_pos_site_id
 _symmetry_equiv_pos_as_xyz
  1  'x, y, z'
loop_
 _atom_site_type_symbol
 _atom_site_label
 _atom_site_symmetry_multiplicity
 _atom_site_fract_x
 _atom_site_fract_y
 _atom_site_fract_z
 _atom_site_occupancy
 _atom_site_charge
Ni  Ni1  1  0.39904000  0.89303000  0.19219000  1.0 0.8474081016
Ni  Ni2  1  0.60096000  0.10697000  0.80781000  1.0 0.8474081016
Ni  Ni3  1  0.31182000  0.02689000  0.16141000  1.0 0.8904423273
Ni  Ni4  1  0.68818000  0.97311000  0.83859000  1.0 0.8904423273
Ni  Ni5  1  0.34370000  0.20096000  0.52202000  1.0 0.8904423273
Ni  Ni6  1  0.65630000  0.79904000  0.47798000  1.0 0.8904423273
Ni  Ni7  1  0.26586000  0.33915000  0.49764000  1.0 0.8801404393
Ni  Ni8  1  0.73414000  0.66085000  0.50236000  1.0 0.8801404393
Ni  Ni9  1  0.21197000  0.65038000  0.83489000  1.0 0.8618720627
Ni  Ni10  1  0.78803000  0.34962000  0.16511000  1.0 0.8618720627
Ni  Ni11  1  0.28698000  0.50900000  0.85453000  1.0 0.792651639
Ni  Ni12  1  0.71302000  0.49100000  0.14547000  1.0 0.792651639
H  H1  1  0.93230000  0.96730000  0.19980000  1.0 0.130561067
H  H2  1  0.06770000  0.03270000  0.80020000  1.0 0.130561067
H  H3  1  0.04660000  0.80470000  0.19010000  1.0 0.1191905882
H  H4  1  0.95340000  0.19530000  0.80990000  1.0 0.1191905882
H  H5  1  0.67700000  0.80510000  0.18730000  1.0 0.1113022135
H  H6  1  0.32300000  0.19490000  0.81270000  1.0 0.1113022135
H  H7  1  0.90210000  0.60450000  0.21750000  1.0 0.1191905882
H  H8  1  0.09790000  0.39550000  0.78250000  1.0 0.1191905882
H  H9  1  0.95600000  0.71330000  0.23540000  1.0 0.1399287753
H  H10  1  0.04400000  0.28670000  0.76460000  1.0 0.1399287753
H  H11  1  0.67440000  0.70710000  0.12280000  1.0 0.1399287753
H  H12  1  0.32560000  0.29290000  0.87720000  1.0 0.1399287753
H  H13  1  0.62290000  0.60070000  0.10930000  1.0 0.1113022135
H  H14  1  0.37710000  0.39930000  0.89070000  1.0 0.1113022135
H  H15  1  0.43760000  0.57950000  0.15280000  1.0 0.1191905882
H  H16  1  0.56240000  0.42050000  0.84720000  1.0 0.1191905882
H  H17  1  0.08040000  0.58280000  0.17050000  1.0 0.1113022135
H  H18  1  0.91960000  0.41720000  0.82950000  1.0 0.1113022135
H  H19  1  0.18050000  0.41550000  0.14150000  1.0 0.130561067
H  H20  1  0.81950000  0.58450000  0.85850000  1.0 0.130561067
H  H21  1  0.45610000  0.77960000  0.13150000  1.0 0.1191905882
H  H22  1  0.54390000  0.22040000  0.86850000  1.0 0.1191905882
H  H23  1  0.40970000  0.66850000  0.12080000  1.0 0.130561067
H  H24  1  0.59030000  0.33150000  0.87920000  1.0 0.130561067
H  H25  1  0.20460000  0.68210000  0.22470000  1.0 0.130561067
H  H26  1  0.79540000  0.31790000  0.77530000  1.0 0.130561067
H  H27  1  0.24890000  0.79010000  0.23260000  1.0 0.1113022135
H  H28  1  0.75110000  0.20990000  0.76740000  1.0 0.1113022135
H  H29  1  0.34590000  0.80000000  0.03240000  1.0 0.1191905882
H  H30  1  0.65410000  0.20000000  0.96760000  1.0 0.1191905882
H  H31  1  0.10750000  0.79500000  0.90650000  1.0 0.1113022135
H  H32  1  0.89250000  0.20500000  0.09350000  1.0 0.1113022135
H  H33  1  0.15930000  0.93760000  0.02270000  1.0 0.1113022135
H  H34  1  0.84070000  0.06240000  0.97730000  1.0 0.1113022135
H  H35  1  0.74370000  0.84930000  0.85490000  1.0 0.099670514
H  H36  1  0.25630000  0.15070000  0.14510000  1.0 0.099670514
H  H37  1  0.88890000  0.81080000  0.89890000  1.0 0.1399287753
H  H38  1  0.11110000  0.18920000  0.10110000  1.0 0.1399287753
H  H39  1  0.10820000  0.99040000  0.95030000  1.0 0.1465697891
H  H40  1  0.89180000  0.00960000  0.04970000  1.0 0.1465697891
H  H41  1  0.94380000  0.02130000  0.90950000  1.0 0.1191905882
H  H42  1  0.05620000  0.97870000  0.09050000  1.0 0.1191905882
H  H43  1  0.22530000  0.17790000  0.23210000  1.0 0.1191905882
H  H44  1  0.77470000  0.82210000  0.76790000  1.0 0.1191905882
H  H45  1  0.15130000  0.26700000  0.35570000  1.0 0.1113022135
H  H46  1  0.84870000  0.73300000  0.64430000  1.0 0.1113022135
H  H47  1  0.36260000  0.13830000  0.35950000  1.0 0.130561067
H  H48  1  0.63740000  0.86170000  0.64050000  1.0 0.130561067
H  H49  1  0.03010000  0.30480000  0.15960000  1.0 0.1191905882
H  H50  1  0.96990000  0.69520000  0.84040000  1.0 0.1191905882
H  H51  1  0.17200000  0.25910000  0.20310000  1.0 0.1399287753
H  H52  1  0.82800000  0.74090000  0.79690000  1.0 0.1399287753
H  H53  1  0.97060000  0.27080000  0.31000000  1.0 0.1399287753
H  H54  1  0.02940000  0.72920000  0.69000000  1.0 0.1399287753
H  H55  1  0.83440000  0.31140000  0.26190000  1.0 0.099670514
H  H56  1  0.16560000  0.68860000  0.73810000  1.0 0.099670514
H  H57  1  0.62740000  0.11510000  0.52820000  1.0 0.1191905882
H  H58  1  0.37260000  0.88490000  0.47180000  1.0 0.1191905882
H  H59  1  0.98610000  0.11350000  0.51250000  1.0 0.1191905882
H  H60  1  0.01390000  0.88650000  0.48750000  1.0 0.1191905882
H  H61  1  0.87640000  0.28060000  0.53260000  1.0 0.1191905882
H  H62  1  0.12360000  0.71940000  0.46740000  1.0 0.1191905882
H  H63  1  0.60630000  0.91390000  0.54510000  1.0 0.1191905882
H  H64  1  0.39370000  0.08610000  0.45490000  1.0 0.1191905882
H  H65  1  0.65590000  0.02400000  0.55900000  1.0 0.130561067
H  H66  1  0.34410000  0.97600000  0.44100000  1.0 0.130561067
H  H67  1  0.87610000  0.01550000  0.45930000  1.0 0.130561067
H  H68  1  0.12390000  0.98450000  0.54070000  1.0 0.130561067
H  H69  1  0.81730000  0.90560000  0.44200000  1.0 0.1113022135
H  H70  1  0.18270000  0.09440000  0.55800000  1.0 0.1113022135
H  H71  1  0.33300000  0.45820000  0.69580000  1.0 0.130561067
H  H72  1  0.66700000  0.54180000  0.30420000  1.0 0.130561067
H  H73  1  0.11950000  0.58520000  0.69180000  1.0 0.1113022135
H  H74  1  0.88050000  0.41480000  0.30820000  1.0 0.1113022135
H  H75  1  0.17730000  0.48960000  0.56620000  1.0 0.1113022135
H  H76  1  0.82270000  0.51040000  0.43380000  1.0 0.1113022135
H  H77  1  0.78450000  0.62540000  0.59990000  1.0 0.099670514
H  H78  1  0.21550000  0.37460000  0.40010000  1.0 0.099670514
H  H79  1  0.91870000  0.57680000  0.64480000  1.0 0.130561067
H  H80  1  0.08130000  0.42320000  0.35520000  1.0 0.130561067
H  H81  1  0.11830000  0.56970000  0.53650000  1.0 0.1399287753
H  H82  1  0.88170000  0.43030000  0.46350000  1.0 0.1399287753
H  H83  1  0.97750000  0.61810000  0.49520000  1.0 0.1191905882
H  H84  1  0.02250000  0.38190000  0.50480000  1.0 0.1191905882
H  H85  1  0.09920000  0.45480000  0.91000000  1.0 0.099670514
H  H86  1  0.90080000  0.54520000  0.09000000  1.0 0.099670514
H  H87  1  0.07520000  0.45390000  0.99020000  1.0 0.130561067
H  H88  1  0.92480000  0.54610000  0.00980000  1.0 0.130561067
H  H89  1  0.24280000  0.50860000  0.05570000  1.0 0.1113022135
H  H90  1  0.75720000  0.49140000  0.94430000  1.0 0.1113022135
H  H91  1  0.43280000  0.56450000  0.04030000  1.0 0.1191905882
H  H92  1  0.56720000  0.43550000  0.95970000  1.0 0.1191905882
H  H93  1  0.45370000  0.56320000  0.96010000  1.0 0.1113022135
H  H94  1  0.54630000  0.43680000  0.03990000  1.0 0.1113022135
H  H95  1  0.42170000  0.17230000  0.72150000  1.0 0.1113022135
H  H96  1  0.57830000  0.82770000  0.27850000  1.0 0.1113022135
H  H97  1  0.35550000  0.21840000  0.75110000  1.0 0.1113022135
H  H98  1  0.64450000  0.78160000  0.24890000  1.0 0.1113022135
H  H99  1  0.49610000  0.24260000  0.74560000  1.0 0.1113022135
H  H100  1  0.50390000  0.75740000  0.25440000  1.0 0.1113022135
H  H101  1  0.28900000  0.30290000  0.65670000  1.0 0.1399287753
H  H102  1  0.71100000  0.69710000  0.34330000  1.0 0.1399287753
H  H103  1  0.25310000  0.29340000  0.70660000  1.0 0.1113022135
H  H104  1  0.74690000  0.70660000  0.29340000  1.0 0.1113022135
H  H105  1  0.18430000  0.24350000  0.65780000  1.0 0.130561067
H  H106  1  0.81570000  0.75650000  0.34220000  1.0 0.130561067
H  H107  1  0.50660000  0.15220000  0.61020000  1.0 0.1604444205
H  H108  1  0.49340000  0.84780000  0.38980000  1.0 0.1604444205
H  H109  1  0.46950000  0.13650000  0.65850000  1.0 0.1399287753
H  H110  1  0.53050000  0.86350000  0.34150000  1.0 0.1399287753
H  H111  1  0.57080000  0.19890000  0.66100000  1.0 0.1604444205
H  H112  1  0.42920000  0.80110000  0.33900000  1.0 0.1604444205
H  H113  1  0.52590000  0.00520000  0.19570000  1.0 0.3778111866
H  H114  1  0.47410000  0.99480000  0.80430000  1.0 0.3778111866
H  H115  1  0.46380000  0.01080000  0.23420000  1.0 0.3625137812
H  H116  1  0.53620000  0.98920000  0.76580000  1.0 0.3625137812
H  H117  1  0.47360000  0.31420000  0.53370000  1.0 0.3625137812
H  H118  1  0.52640000  0.68580000  0.46630000  1.0 0.3625137812
H  H119  1  0.40550000  0.31600000  0.57050000  1.0 0.3778111866
H  H120  1  0.59450000  0.68400000  0.42950000  1.0 0.3778111866
H  H121  1  0.35120000  0.62490000  0.90670000  1.0 0.3704389787
H  H122  1  0.64880000  0.37510000  0.09330000  1.0 0.3704389787
H  H123  1  0.42120000  0.62520000  0.87050000  1.0 0.3704389787
H  H124  1  0.57880000  0.37480000  0.12950000  1.0 0.3704389787
H  H125  1  0.51740000  0.91370000  0.27410000  1.0 0.3625137812
H  H126  1  0.48260000  0.08630000  0.72590000  1.0 0.3625137812
H  H127  1  0.41610000  0.93910000  0.28150000  1.0 0.3497684306
H  H128  1  0.58390000  0.06090000  0.71850000  1.0 0.3497684306
H  H129  1  0.41760000  0.09780000  0.11290000  1.0 0.3889107214
H  H130  1  0.58240000  0.90220000  0.88710000  1.0 0.3889107214
H  H131  1  0.51580000  0.10560000  0.15780000  1.0 0.3889107214
H  H132  1  0.48420000  0.89440000  0.84220000  1.0 0.3889107214
H  H133  1  0.49290000  0.39750000  0.49550000  1.0 0.4183273173
H  H134  1  0.50710000  0.60250000  0.50450000  1.0 0.4183273173
H  H135  1  0.39700000  0.42920000  0.46720000  1.0 0.398070187
H  H136  1  0.60300000  0.57080000  0.53280000  1.0 0.398070187
H  H137  1  0.39780000  0.75680000  0.84560000  1.0 0.398070187
H  H138  1  0.60220000  0.24320000  0.15440000  1.0 0.398070187
H  H139  1  0.35330000  0.72720000  0.78910000  1.0 0.3889107214
H  H140  1  0.64670000  0.27280000  0.21090000  1.0 0.3889107214
C  C1  1  0.78840000  0.89052000  0.19229000  1.0 -0.0038030734
C  C2  1  0.21160000  0.10948000  0.80771000  1.0 -0.0038030734
C  C3  1  0.91310000  0.92350000  0.19615000  1.0 -0.1218970114
C  C4  1  0.08690000  0.07650000  0.80385000  1.0 -0.1218970114
C  C5  1  0.00860000  0.89147000  0.19454000  1.0 -0.0395557799
C  C6  1  0.99140000  0.10853000  0.80546000  1.0 -0.0395557799
C  C7  1  0.98170000  0.82609000  0.19031000  1.0 -0.1490966927
C  C8  1  0.01830000  0.17391000  0.80969000  1.0 -0.1490966927
C  C9  1  0.85650000  0.79313000  0.18638000  1.0 0.0508234489
C  C10  1  0.14350000  0.20687000  0.81362000  1.0 0.0508234489
C  C11  1  0.76020000  0.82664000  0.18849000  1.0 -0.1490966927
C  C12  1  0.23980000  0.17336000  0.81151000  1.0 -0.1490966927
C  C13  1  0.67770000  0.92199000  0.19416000  1.0 0.5600289361
C  C14  1  0.32230000  0.07801000  0.80584000  1.0 0.5600289361
C  C15  1  0.13240000  0.92636000  0.18959000  1.0 0.5790697492
C  C16  1  0.86760000  0.07364000  0.81041000  1.0 0.5790697492
C  C17  1  0.85530000  0.62569000  0.19860000  1.0 0.099670514
C  C18  1  0.14470000  0.37431000  0.80140000  1.0 0.099670514
C  C19  1  0.88940000  0.69096000  0.20930000  1.0 -0.2082194232
C  C20  1  0.11060000  0.30904000  0.79070000  1.0 -0.2082194232
C  C21  1  0.82250000  0.72283000  0.18030000  1.0 0.130561067
C  C22  1  0.17750000  0.27717000  0.81970000  1.0 0.130561067
C  C23  1  0.72130000  0.68688000  0.14253000  1.0 -0.1916510308
C  C24  1  0.27870000  0.31312000  0.85747000  1.0 -0.1916510308
C  C25  1  0.69120000  0.62364000  0.13452000  1.0 0.0508234489
C  C26  1  0.30880000  0.37636000  0.86548000  1.0 0.0508234489
C  C27  1  0.32930000  0.49430000  0.14907000  1.0 -0.0094414057
C  C28  1  0.67070000  0.50570000  0.85093000  1.0 -0.0094414057
C  C29  1  0.35620000  0.55828000  0.15420000  1.0 -0.1681738787
C  C30  1  0.64380000  0.44172000  0.84580000  1.0 -0.1681738787
C  C31  1  0.26370000  0.59381000  0.16158000  1.0 0.0688916749
C  C32  1  0.73630000  0.40619000  0.83842000  1.0 0.0688916749
C  C33  1  0.14210000  0.56074000  0.16427000  1.0 -0.1916510308
C  C34  1  0.85790000  0.43926000  0.83573000  1.0 -0.1916510308
C  C35  1  0.11280000  0.49302000  0.15750000  1.0 -0.0094414057
C  C36  1  0.88720000  0.50698000  0.84250000  1.0 -0.0094414057
C  C37  1  0.20170000  0.45960000  0.14820000  1.0 -0.1490966927
C  C38  1  0.79830000  0.54040000  0.85180000  1.0 -0.1490966927
C  C39  1  0.40370000  0.75975000  0.14973000  1.0 0.0906198813
C  C40  1  0.59630000  0.24025000  0.85027000  1.0 0.0906198813
C  C41  1  0.37520000  0.69288000  0.14296000  1.0 -0.2002119639
C  C42  1  0.62480000  0.30712000  0.85704000  1.0 -0.2002119639
C  C43  1  0.29240000  0.66350000  0.17068000  1.0 0.1113022135
C  C44  1  0.70760000  0.33650000  0.82932000  1.0 0.1113022135
C  C45  1  0.25240000  0.70028000  0.20443000  1.0 -0.1916510308
C  C46  1  0.74760000  0.29972000  0.79557000  1.0 -0.1916510308
C  C47  1  0.28150000  0.76585000  0.20961000  1.0 0.1113022135
C  C48  1  0.71850000  0.23415000  0.79039000  1.0 0.1113022135
C  C49  1  0.43260000  0.46198000  0.13884000  1.0 0.5600289361
C  C50  1  0.56740000  0.53802000  0.86116000  1.0 0.5600289361
C  C51  1  0.97510000  0.46232000  0.15513000  1.0 0.5600289361
C  C52  1  0.02490000  0.53768000  0.84487000  1.0 0.5600289361
C  C53  1  0.25400000  0.87156000  0.03686000  1.0 -0.0094414057
C  C54  1  0.74600000  0.12844000  0.96314000  1.0 -0.0094414057
C  C55  1  0.28820000  0.81703000  0.01428000  1.0 -0.1218970114
C  C56  1  0.71180000  0.18297000  0.98572000  1.0 -0.1218970114
C  C57  1  0.23630000  0.78811000  0.96476000  1.0 -0.0268812853
C  C58  1  0.76370000  0.21189000  0.03524000  1.0 -0.0268812853
C  C59  1  0.14540000  0.81447000  0.93909000  1.0 -0.1490966927
C  C60  1  0.85460000  0.18553000  0.06091000  1.0 -0.1490966927
C  C61  1  0.11100000  0.86773000  0.96045000  1.0 0.0426824844
C  C62  1  0.88900000  0.13227000  0.03955000  1.0 0.0426824844
C  C63  1  0.17300000  0.89858000  0.00910000  1.0 -0.1589058795
C  C64  1  0.82700000  0.10142000  0.99090000  1.0 -0.1589058795
C  C65  1  0.81590000  0.87761000  0.87528000  1.0 0.058680617
C  C66  1  0.18410000  0.12239000  0.12472000  1.0 0.058680617
C  C67  1  0.90360000  0.85440000  0.90164000  1.0 -0.2082194232
C  C68  1  0.09640000  0.14560000  0.09836000  1.0 -0.2082194232
C  C69  1  0.01430000  0.89310000  0.93251000  1.0 0.1399287753
C  C70  1  0.98570000  0.10690000  0.06749000  1.0 0.1399287753
C  C71  1  0.03370000  0.96098000  0.93308000  1.0 -0.2082194232
C  C72  1  0.96630000  0.03902000  0.06692000  1.0 -0.2082194232
C  C73  1  0.93600000  0.97800000  0.90686000  1.0 0.099670514
C  C74  1  0.06400000  0.02200000  0.09314000  1.0 0.099670514
C  C75  1  0.30700000  0.90378000  0.09004000  1.0 0.5885974026
C  C76  1  0.69300000  0.09622000  0.90996000  1.0 0.5885974026
C  C77  1  0.26780000  0.73156000  0.93740000  1.0 0.5600289361
C  C78  1  0.73220000  0.26844000  0.06260000  1.0 0.5600289361
C  C79  1  0.29950000  0.15041000  0.29076000  1.0 -0.0094414057
C  C80  1  0.70050000  0.84959000  0.70924000  1.0 -0.0094414057
C  C81  1  0.23160000  0.18371000  0.26587000  1.0 -0.1490966927
C  C82  1  0.76840000  0.81629000  0.73413000  1.0 -0.1490966927
C  C83  1  0.17110000  0.22615000  0.28897000  1.0 0.0508234489
C  C84  1  0.82890000  0.77385000  0.71103000  1.0 0.0508234489
C  C85  1  0.18970000  0.23785000  0.33969000  1.0 -0.1589058795
C  C86  1  0.81030000  0.76215000  0.66031000  1.0 -0.1589058795
C  C87  1  0.26450000  0.20723000  0.36773000  1.0 -0.018967544
C  C88  1  0.73550000  0.79277000  0.63227000  1.0 -0.018967544
C  C89  1  0.31660000  0.16144000  0.34233000  1.0 -0.1097758033
C  C90  1  0.68340000  0.83856000  0.65767000  1.0 -0.1097758033
C  C91  1  0.01690000  0.29604000  0.18947000  1.0 0.0906198813
C  C92  1  0.98310000  0.70396000  0.81053000  1.0 0.0906198813
C  C93  1  0.10370000  0.26915000  0.21574000  1.0 -0.2002119639
C  C94  1  0.89630000  0.73085000  0.78426000  1.0 -0.2002119639
C  C95  1  0.08590000  0.25788000  0.26055000  1.0 0.130561067
C  C96  1  0.91410000  0.74212000  0.73945000  1.0 0.130561067
C  C97  1  0.98320000  0.27563000  0.27913000  1.0 -0.2180014818
C  C98  1  0.01680000  0.72437000  0.72087000  1.0 -0.2180014818
C  C99  1  0.90260000  0.30039000  0.24970000  1.0 0.0906198813
C  C100  1  0.09740000  0.69961000  0.75030000  1.0 0.0906198813
C  C101  1  0.36020000  0.10518000  0.26179000  1.0 0.5790697492
C  C102  1  0.63980000  0.89482000  0.73821000  1.0 0.5790697492
C  C103  1  0.28180000  0.22543000  0.42197000  1.0 0.5790697492
C  C104  1  0.71820000  0.77457000  0.57803000  1.0 0.5790697492
C  C105  1  0.73280000  0.19996000  0.52956000  1.0 -0.0094414057
C  C106  1  0.26720000  0.80004000  0.47044000  1.0 -0.0094414057
C  C107  1  0.70800000  0.13644000  0.52598000  1.0 -0.1589058795
C  C108  1  0.29200000  0.86356000  0.47402000  1.0 -0.1589058795
C  C109  1  0.80080000  0.10186000  0.51897000  1.0 0.058680617
C  C110  1  0.19920000  0.89814000  0.48103000  1.0 0.058680617
C  C111  1  0.92370000  0.13568000  0.51713000  1.0 -0.1589058795
C  C112  1  0.07630000  0.86432000  0.48287000  1.0 -0.1589058795
C  C113  1  0.95420000  0.20142000  0.52209000  1.0 -0.0268812853
C  C114  1  0.04580000  0.79858000  0.47791000  1.0 -0.0268812853
C  C115  1  0.85860000  0.23675000  0.52886000  1.0 -0.1341116273
C  C116  1  0.14140000  0.76325000  0.47114000  1.0 -0.1341116273
C  C117  1  0.65940000  0.93414000  0.52732000  1.0 0.099670514
C  C118  1  0.34060000  0.06586000  0.47268000  1.0 0.099670514
C  C119  1  0.68930000  0.00043000  0.53595000  1.0 -0.2002119639
C  C120  1  0.31070000  0.99957000  0.46405000  1.0 -0.2002119639
C  C121  1  0.76840000  0.03021000  0.50995000  1.0 0.1113022135
C  C122  1  0.23160000  0.96979000  0.49005000  1.0 0.1113022135
C  C123  1  0.81970000  0.99490000  0.47573000  1.0 -0.2002119639
C  C124  1  0.18030000  0.00510000  0.52427000  1.0 -0.2002119639
C  C125  1  0.78680000  0.92912000  0.46613000  1.0 0.0801123685
C  C126  1  0.21320000  0.07088000  0.53387000  1.0 0.0801123685
C  C127  1  0.62650000  0.23374000  0.53354000  1.0 0.5687714672
C  C128  1  0.37350000  0.76626000  0.46646000  1.0 0.5687714672
C  C129  1  0.08470000  0.23323000  0.51940000  1.0 0.5885974026
C  C130  1  0.91530000  0.76677000  0.48060000  1.0 0.5885974026
C  C131  1  0.26230000  0.46549000  0.62764000  1.0 -0.0094414057
C  C132  1  0.73770000  0.53451000  0.37236000  1.0 -0.0094414057
C  C133  1  0.28250000  0.47909000  0.67805000  1.0 -0.1218970114
C  C134  1  0.71750000  0.52091000  0.32195000  1.0 -0.1218970114
C  C135  1  0.22790000  0.52410000  0.70309000  1.0 -0.018967544
C  C136  1  0.77210000  0.47590000  0.29691000  1.0 -0.018967544
C  C137  1  0.15300000  0.55404000  0.67552000  1.0 -0.1681738787
C  C138  1  0.84700000  0.44596000  0.32448000  1.0 -0.1681738787
C  C139  1  0.12520000  0.53923000  0.62340000  1.0 0.0508234489
C  C140  1  0.87480000  0.46077000  0.37660000  1.0 0.0508234489
C  C141  1  0.18630000  0.49711000  0.60013000  1.0 -0.1589058795
C  C142  1  0.81370000  0.50289000  0.39987000  1.0 -0.1589058795
C  C143  1  0.85030000  0.61271000  0.58694000  1.0 0.0801123685
C  C144  1  0.14970000  0.38729000  0.41306000  1.0 0.0801123685
C  C145  1  0.93260000  0.58468000  0.61472000  1.0 -0.2180014818
C  C146  1  0.06740000  0.41532000  0.38528000  1.0 -0.2180014818
C  C147  1  0.03650000  0.56879000  0.59609000  1.0 0.1191905882
C  C148  1  0.96350000  0.43121000  0.40391000  1.0 0.1191905882
C  C149  1  0.05180000  0.58039000  0.55004000  1.0 -0.2082194232
C  C150  1  0.94820000  0.41961000  0.44996000  1.0 -0.2082194232
C  C151  1  0.96510000  0.60835000  0.52490000  1.0 0.1113022135
C  C152  1  0.03490000  0.39165000  0.47510000  1.0 0.1113022135
C  C153  1  0.31660000  0.41751000  0.59909000  1.0 0.5600289361
C  C154  1  0.68340000  0.58249000  0.40091000  1.0 0.5600289361
C  C155  1  0.24980000  0.54243000  0.75735000  1.0 0.5790697492
C  C156  1  0.75020000  0.45757000  0.24265000  1.0 0.5790697492
C  C157  1  0.16590000  0.47650000  0.93624000  1.0 0.0801123685
C  C158  1  0.83410000  0.52350000  0.06376000  1.0 0.0801123685
C  C159  1  0.15120000  0.47597000  0.98441000  1.0 -0.1490966927
C  C160  1  0.84880000  0.52403000  0.01559000  1.0 -0.1490966927
C  C161  1  0.25140000  0.50877000  0.02356000  1.0 -0.0395557799
C  C162  1  0.74860000  0.49123000  0.97644000  1.0 -0.0395557799
C  C163  1  0.36580000  0.54218000  0.01433000  1.0 -0.1490966927
C  C164  1  0.63420000  0.45782000  0.98567000  1.0 -0.1490966927
C  C165  1  0.37800000  0.54155000  0.96626000  1.0 0.0801123685
C  C166  1  0.62200000  0.45845000  0.03374000  1.0 0.0801123685
C  C167  1  0.41410000  0.21534000  0.72958000  1.0 -0.3457681232
C  C168  1  0.58590000  0.78466000  0.27042000  1.0 -0.3457681232
C  C169  1  0.26360000  0.27219000  0.67539000  1.0 -0.3313193464
C  C170  1  0.73640000  0.72781000  0.32461000  1.0 -0.3313193464
C  C171  1  0.38800000  0.20493000  0.63603000  1.0 0.5600289361
C  C172  1  0.61200000  0.79507000  0.36397000  1.0 0.5600289361
C  C173  1  0.49340000  0.16993000  0.64198000  1.0 -0.6021867835
C  C174  1  0.50660000  0.83007000  0.35802000  1.0 -0.6021867835
N  N1  1  0.75860000  0.59134000  0.16255000  1.0 -0.2180014818
N  N2  1  0.24140000  0.40866000  0.83745000  1.0 -0.2180014818
N  N3  1  0.35360000  0.79555000  0.18336000  1.0 -0.2305823707
N  N4  1  0.64640000  0.20445000  0.81664000  1.0 -0.2305823707
N  N5  1  0.82930000  0.93923000  0.87749000  1.0 -0.2305823707
N  N6  1  0.17070000  0.06077000  0.12251000  1.0 -0.2305823707
N  N7  1  0.91310000  0.30985000  0.20647000  1.0 -0.2409745821
N  N8  1  0.08690000  0.69015000  0.79353000  1.0 -0.2409745821
N  N9  1  0.70740000  0.89832000  0.49296000  1.0 -0.2483812117
N  N10  1  0.29260000  0.10168000  0.50704000  1.0 -0.2483812117
N  N11  1  0.86420000  0.62157000  0.54263000  1.0 -0.2409745821
N  N12  1  0.13580000  0.37843000  0.45737000  1.0 -0.2409745821
N  N13  1  0.27870000  0.50901000  0.92756000  1.0 -0.2771127963
N  N14  1  0.72130000  0.49099000  0.07244000  1.0 -0.2771127963
N  N15  1  0.36550000  0.23532000  0.68324000  1.0 -0.018967544
N  N16  1  0.63450000  0.76468000  0.31676000  1.0 -0.018967544
O  O1  1  0.59340000  0.89519000  0.21252000  1.0 -0.5654053831
O  O2  1  0.40660000  0.10481000  0.78748000  1.0 -0.5654053831
O  O3  1  0.67950000  0.97266000  0.17958000  1.0 -0.5397662961
O  O4  1  0.32050000  0.02734000  0.82042000  1.0 -0.5397662961
O  O5  1  0.17240000  0.98400000  0.18778000  1.0 -0.5303323263
O  O6  1  0.82760000  0.01600000  0.81222000  1.0 -0.5303323263
O  O7  1  0.22040000  0.88954000  0.19564000  1.0 -0.6222100401
O  O8  1  0.77960000  0.11046000  0.80436000  1.0 -0.6222100401
O  O9  1  0.52960000  0.49340000  0.13139000  1.0 -0.5303323263
O  O10  1  0.47040000  0.50660000  0.86861000  1.0 -0.5303323263
O  O11  1  0.41950000  0.40267000  0.14091000  1.0 -0.5600262427
O  O12  1  0.58050000  0.59733000  0.85909000  1.0 -0.5600262427
O  O13  1  0.94720000  0.40626000  0.15143000  1.0 -0.4824877524
O  O14  1  0.05280000  0.59374000  0.84857000  1.0 -0.4824877524
O  O15  1  0.90090000  0.49841000  0.16119000  1.0 -0.5510709131
O  O16  1  0.09910000  0.50159000  0.83881000  1.0 -0.5510709131
O  O17  1  0.27830000  0.95595000  0.10262000  1.0 -0.5600262427
O  O18  1  0.72170000  0.04405000  0.89738000  1.0 -0.5600262427
O  O19  1  0.36720000  0.87643000  0.11689000  1.0 -0.5303323263
O  O20  1  0.63280000  0.12357000  0.88311000  1.0 -0.5303323263
O  O21  1  0.33660000  0.70199000  0.95866000  1.0 -0.5510709131
O  O22  1  0.66340000  0.29801000  0.04134000  1.0 -0.5510709131
O  O23  1  0.21470000  0.71644000  0.89247000  1.0 -0.5774403357
O  O24  1  0.78530000  0.28356000  0.10753000  1.0 -0.5774403357
O  O25  1  0.34120000  0.10227000  0.21667000  1.0 -0.5774403357
O  O26  1  0.65880000  0.89773000  0.78333000  1.0 -0.5774403357
O  O27  1  0.41090000  0.06695000  0.28305000  1.0 -0.5600262427
O  O28  1  0.58910000  0.93305000  0.71695000  1.0 -0.5600262427
O  O29  1  0.34270000  0.19684000  0.44784000  1.0 -0.5303323263
O  O30  1  0.65730000  0.80316000  0.55216000  1.0 -0.5303323263
O  O31  1  0.23810000  0.27034000  0.43774000  1.0 -0.5397662961
O  O32  1  0.76190000  0.72966000  0.56226000  1.0 -0.5397662961
O  O33  1  0.52430000  0.19560000  0.53378000  1.0 -0.5600262427
O  O34  1  0.47570000  0.80440000  0.46622000  1.0 -0.5600262427
O  O35  1  0.64260000  0.29076000  0.53288000  1.0 -0.5510709131
O  O36  1  0.35740000  0.70924000  0.46712000  1.0 -0.5510709131
O  O37  1  0.15670000  0.19605000  0.51300000  1.0 -0.5510709131
O  O38  1  0.84330000  0.80395000  0.48700000  1.0 -0.5510709131
O  O39  1  0.11900000  0.29313000  0.52340000  1.0 -0.5654053831
O  O40  1  0.88100000  0.70687000  0.47660000  1.0 -0.5654053831
O  O41  1  0.30080000  0.41641000  0.55306000  1.0 -0.5934158706
O  O42  1  0.69920000  0.58359000  0.44694000  1.0 -0.5934158706
O  O43  1  0.37220000  0.38404000  0.61892000  1.0 -0.4991603636
O  O44  1  0.62780000  0.61596000  0.38108000  1.0 -0.4991603636
O  O45  1  0.29580000  0.50819000  0.78273000  1.0 -0.5190314197
O  O46  1  0.70420000  0.49181000  0.21727000  1.0 -0.5190314197
O  O47  1  0.21110000  0.58980000  0.77234000  1.0 -0.5510709131
O  O48  1  0.78890000  0.41020000  0.22766000  1.0 -0.5510709131
O  O49  1  0.34140000  0.21202000  0.59542000  1.0 -0.4991603636
O  O50  1  0.65860000  0.78798000  0.40458000  1.0 -0.4991603636
O  O51  1  0.45490000  0.99417000  0.20396000  1.0 -0.6688895369
O  O52  1  0.54510000  0.00583000  0.79604000  1.0 -0.6688895369
O  O53  1  0.40040000  0.30218000  0.54000000  1.0 -0.6771091366
O  O54  1  0.59960000  0.69782000  0.46000000  1.0 -0.6771091366
O  O55  1  0.34760000  0.61247000  0.87619000  1.0 -0.6616712951
O  O56  1  0.65240000  0.38753000  0.12381000  1.0 -0.6616712951
O  O57  1  0.43640000  0.90559000  0.26885000  1.0 -0.6257766032
O  O58  1  0.56360000  0.09441000  0.73115000  1.0 -0.6257766032
O  O59  1  0.45120000  0.07701000  0.13172000  1.0 -0.6616712951
O  O60  1  0.54880000  0.92299000  0.86828000  1.0 -0.6616712951
O  O61  1  0.41440000  0.38960000  0.47191000  1.0 -0.7031105303
O  O62  1  0.58560000  0.61040000  0.52809000  1.0 -0.7031105303
O  O63  1  0.37640000  0.71814000  0.82083000  1.0 -0.7199991488
O  O64  1  0.62360000  0.28186000  0.17917000  1.0 -0.7199991488
