# DDEC6 charges by PACMAN v1.1 (https://github.com/mtap-research/PACMAN-charge/)
data_XOMCUZ_FSR_pacman
_symmetry_space_group_name_H-M   'P 1'
_cell_length_a   14.94380000
_cell_length_b   14.94380000
_cell_length_c   10.12900000
_cell_angle_alpha   90.00000000
_cell_angle_beta   90.00000000
_cell_angle_gamma   90.00000000
_symmetry_Int_Tables_number   1
_chemical_formula_structural   ZnH18C26N3O4
_chemical_formula_sum   'Zn4 H72 C104 N12 O16'
_cell_volume   2261.97949784
_cell_formula_units_Z   4
loop_
 _symmetry_equiv_pos_site_id
 _symmetry_equiv_pos_as_xyz
  1  'x, y, z'
loop_
 _atom_site_type_symbol
 _atom_site_label
 _atom_site_symmetry_multiplicity
 _atom_site_fract_x
 _atom_site_fract_y
 _atom_site_fract_z
 _atom_site_occupancy
 _atom_site_charge
Zn  Zn1  1  0.15412000  0.56338000  0.00000000  1.0 0.7005689047
Zn  Zn2  1  0.84588000  0.43662000  0.00000000  1.0 0.7005689047
Zn  Zn3  1  0.56338000  0.84588000  0.50000000  1.0 0.7005689047
Zn  Zn4  1  0.43662000  0.15412000  0.50000000  1.0 0.7005689047
H  H1  1  0.06330000  0.38200000  0.00000000  1.0 0.1283682466
H  H2  1  0.93670000  0.61800000  0.00000000  1.0 0.1283682466
H  H3  1  0.38200000  0.93670000  0.50000000  1.0 0.1283682466
H  H4  1  0.61800000  0.06330000  0.50000000  1.0 0.1283682466
H  H5  1  0.29480000  0.25890000  0.00000000  1.0 0.1283682466
H  H6  1  0.70520000  0.74110000  0.00000000  1.0 0.1283682466
H  H7  1  0.25890000  0.70520000  0.50000000  1.0 0.1283682466
H  H8  1  0.74110000  0.29480000  0.50000000  1.0 0.1283682466
H  H9  1  0.31980000  0.41890000  0.00000000  1.0 0.1283682466
H  H10  1  0.68020000  0.58110000  0.00000000  1.0 0.1283682466
H  H11  1  0.41890000  0.68020000  0.50000000  1.0 0.1283682466
H  H12  1  0.58110000  0.31980000  0.50000000  1.0 0.1283682466
H  H13  1  0.99090000  0.25570000  0.00000000  1.0 0.1364818715
H  H14  1  0.00910000  0.74430000  0.00000000  1.0 0.1364818715
H  H15  1  0.25570000  0.00910000  0.50000000  1.0 0.1364818715
H  H16  1  0.74430000  0.99090000  0.50000000  1.0 0.1364818715
H  H17  1  0.92000000  0.12350000  0.00000000  1.0 0.110738818
H  H18  1  0.08000000  0.87650000  0.00000000  1.0 0.110738818
H  H19  1  0.12350000  0.08000000  0.50000000  1.0 0.110738818
H  H20  1  0.87650000  0.92000000  0.50000000  1.0 0.110738818
H  H21  1  0.14790000  0.99590000  0.00000000  1.0 0.1192526891
H  H22  1  0.85210000  0.00410000  0.00000000  1.0 0.1192526891
H  H23  1  0.99590000  0.85210000  0.50000000  1.0 0.1192526891
H  H24  1  0.00410000  0.14790000  0.50000000  1.0 0.1192526891
H  H25  1  0.22190000  0.12670000  0.00000000  1.0 0.1283682466
H  H26  1  0.77810000  0.87330000  0.00000000  1.0 0.1283682466
H  H27  1  0.12670000  0.77810000  0.50000000  1.0 0.1283682466
H  H28  1  0.87330000  0.22190000  0.50000000  1.0 0.1283682466
H  H29  1  0.35770000  0.94980000  0.19820000  1.0 0.110738818
H  H30  1  0.64230000  0.05020000  0.19820000  1.0 0.110738818
H  H31  1  0.94980000  0.64230000  0.69820000  1.0 0.110738818
H  H32  1  0.05020000  0.35770000  0.69820000  1.0 0.110738818
H  H33  1  0.64230000  0.05020000  0.80180000  1.0 0.110738818
H  H34  1  0.35770000  0.94980000  0.80180000  1.0 0.110738818
H  H35  1  0.05020000  0.35770000  0.30180000  1.0 0.110738818
H  H36  1  0.94980000  0.64230000  0.30180000  1.0 0.110738818
H  H37  1  0.44450000  0.16520000  0.00000000  1.0 0.1192526891
H  H38  1  0.55550000  0.83480000  0.00000000  1.0 0.1192526891
H  H39  1  0.16520000  0.55550000  0.50000000  1.0 0.1192526891
H  H40  1  0.83480000  0.44450000  0.50000000  1.0 0.1192526891
H  H41  1  0.23810000  0.85900000  0.83170000  1.0 0.110738818
H  H42  1  0.76190000  0.14100000  0.83170000  1.0 0.110738818
H  H43  1  0.85900000  0.76190000  0.33170000  1.0 0.110738818
H  H44  1  0.14100000  0.23810000  0.33170000  1.0 0.110738818
H  H45  1  0.76190000  0.14100000  0.16830000  1.0 0.110738818
H  H46  1  0.23810000  0.85900000  0.16830000  1.0 0.110738818
H  H47  1  0.14100000  0.23810000  0.66830000  1.0 0.110738818
H  H48  1  0.85900000  0.76190000  0.66830000  1.0 0.110738818
H  H49  1  0.17960000  0.71640000  0.83130000  1.0 0.110738818
H  H50  1  0.82040000  0.28360000  0.83130000  1.0 0.110738818
H  H51  1  0.71640000  0.82040000  0.33130000  1.0 0.110738818
H  H52  1  0.28360000  0.17960000  0.33130000  1.0 0.110738818
H  H53  1  0.82040000  0.28360000  0.16870000  1.0 0.110738818
H  H54  1  0.17960000  0.71640000  0.16870000  1.0 0.110738818
H  H55  1  0.28360000  0.17960000  0.66870000  1.0 0.110738818
H  H56  1  0.71640000  0.82040000  0.66870000  1.0 0.110738818
H  H57  1  0.31060000  0.65250000  0.85310000  1.0 0.1192526891
H  H58  1  0.68940000  0.34750000  0.85310000  1.0 0.1192526891
H  H59  1  0.65250000  0.68940000  0.35310000  1.0 0.1192526891
H  H60  1  0.34750000  0.31060000  0.35310000  1.0 0.1192526891
H  H61  1  0.68940000  0.34750000  0.14690000  1.0 0.1192526891
H  H62  1  0.31060000  0.65250000  0.14690000  1.0 0.1192526891
H  H63  1  0.34750000  0.31060000  0.64690000  1.0 0.1192526891
H  H64  1  0.65250000  0.68940000  0.64690000  1.0 0.1192526891
H  H65  1  0.37490000  0.79270000  0.84300000  1.0 0.1192526891
H  H66  1  0.62510000  0.20730000  0.84300000  1.0 0.1192526891
H  H67  1  0.79270000  0.62510000  0.34300000  1.0 0.1192526891
H  H68  1  0.20730000  0.37490000  0.34300000  1.0 0.1192526891
H  H69  1  0.62510000  0.20730000  0.15700000  1.0 0.1192526891
H  H70  1  0.37490000  0.79270000  0.15700000  1.0 0.1192526891
H  H71  1  0.20730000  0.37490000  0.65700000  1.0 0.1192526891
H  H72  1  0.79270000  0.62510000  0.65700000  1.0 0.1192526891
C  C1  1  0.12460000  0.37120000  0.00000000  1.0 0.1192526891
C  C2  1  0.87540000  0.62880000  0.00000000  1.0 0.1192526891
C  C3  1  0.37120000  0.87540000  0.50000000  1.0 0.1192526891
C  C4  1  0.62880000  0.12460000  0.50000000  1.0 0.1192526891
C  C5  1  0.25080000  0.30300000  0.00000000  1.0 -0.1155854337
C  C6  1  0.74920000  0.69700000  0.00000000  1.0 -0.1155854337
C  C7  1  0.30300000  0.74920000  0.50000000  1.0 -0.1155854337
C  C8  1  0.69700000  0.25080000  0.50000000  1.0 -0.1155854337
C  C9  1  0.26420000  0.39090000  0.00000000  1.0 -0.0474507421
C  C10  1  0.73580000  0.60910000  0.00000000  1.0 -0.0474507421
C  C11  1  0.39090000  0.73580000  0.50000000  1.0 -0.0474507421
C  C12  1  0.60910000  0.26420000  0.50000000  1.0 -0.0474507421
C  C13  1  0.11510000  0.20650000  0.00000000  1.0 0.1283682466
C  C14  1  0.88490000  0.79350000  0.00000000  1.0 0.1283682466
C  C15  1  0.20650000  0.88490000  0.50000000  1.0 0.1283682466
C  C16  1  0.79350000  0.11510000  0.50000000  1.0 0.1283682466
C  C17  1  0.02410000  0.20300000  0.00000000  1.0 -0.1743196246
C  C18  1  0.97590000  0.79700000  0.00000000  1.0 -0.1743196246
C  C19  1  0.20300000  0.97590000  0.50000000  1.0 -0.1743196246
C  C20  1  0.79700000  0.02410000  0.50000000  1.0 -0.1743196246
C  C21  1  0.98220000  0.12320000  0.00000000  1.0 -0.1426517232
C  C22  1  0.01780000  0.87680000  0.00000000  1.0 -0.1426517232
C  C23  1  0.12320000  0.01780000  0.50000000  1.0 -0.1426517232
C  C24  1  0.87680000  0.98220000  0.50000000  1.0 -0.1426517232
C  C25  1  0.02390000  0.04220000  0.00000000  1.0 0.0679064594
C  C26  1  0.97610000  0.95780000  0.00000000  1.0 0.0679064594
C  C27  1  0.04220000  0.97610000  0.50000000  1.0 0.0679064594
C  C28  1  0.95780000  0.02390000  0.50000000  1.0 0.0679064594
C  C29  1  0.11480000  0.04860000  0.00000000  1.0 -0.1426517232
C  C30  1  0.88520000  0.95140000  0.00000000  1.0 -0.1426517232
C  C31  1  0.04860000  0.88520000  0.50000000  1.0 -0.1426517232
C  C32  1  0.95140000  0.11480000  0.50000000  1.0 -0.1426517232
C  C33  1  0.15970000  0.12700000  0.00000000  1.0 -0.1798747726
C  C34  1  0.84030000  0.87300000  0.00000000  1.0 -0.1798747726
C  C35  1  0.12700000  0.84030000  0.50000000  1.0 -0.1798747726
C  C36  1  0.87300000  0.15970000  0.50000000  1.0 -0.1798747726
C  C37  1  0.40330000  0.06440000  0.11870000  1.0 -0.0123229291
C  C38  1  0.59670000  0.93560000  0.11870000  1.0 -0.0123229291
C  C39  1  0.06440000  0.59670000  0.61870000  1.0 -0.0123229291
C  C40  1  0.93560000  0.40330000  0.61870000  1.0 -0.0123229291
C  C41  1  0.59670000  0.93560000  0.88130000  1.0 -0.0123229291
C  C42  1  0.40330000  0.06440000  0.88130000  1.0 -0.0123229291
C  C43  1  0.93560000  0.40330000  0.38130000  1.0 -0.0123229291
C  C44  1  0.06440000  0.59670000  0.38130000  1.0 -0.0123229291
C  C45  1  0.42300000  0.11190000  0.24620000  1.0 0.5282362007
C  C46  1  0.57700000  0.88810000  0.24620000  1.0 0.5282362007
C  C47  1  0.11190000  0.57700000  0.74620000  1.0 0.5282362007
C  C48  1  0.88810000  0.42300000  0.74620000  1.0 0.5282362007
C  C49  1  0.57700000  0.88810000  0.75380000  1.0 0.5282362007
C  C50  1  0.42300000  0.11190000  0.75380000  1.0 0.5282362007
C  C51  1  0.88810000  0.42300000  0.25380000  1.0 0.5282362007
C  C52  1  0.11190000  0.57700000  0.25380000  1.0 0.5282362007
C  C53  1  0.35130000  0.93440000  0.00000000  1.0 0.0609881185
C  C54  1  0.64870000  0.06560000  0.00000000  1.0 0.0609881185
C  C55  1  0.93440000  0.64870000  0.50000000  1.0 0.0609881185
C  C56  1  0.06560000  0.35130000  0.50000000  1.0 0.0609881185
C  C57  1  0.36900000  0.97850000  0.11840000  1.0 -0.1743196246
C  C58  1  0.63100000  0.02150000  0.11840000  1.0 -0.1743196246
C  C59  1  0.97850000  0.63100000  0.61840000  1.0 -0.1743196246
C  C60  1  0.02150000  0.36900000  0.61840000  1.0 -0.1743196246
C  C61  1  0.63100000  0.02150000  0.88160000  1.0 -0.1743196246
C  C62  1  0.36900000  0.97850000  0.88160000  1.0 -0.1743196246
C  C63  1  0.02150000  0.36900000  0.38160000  1.0 -0.1743196246
C  C64  1  0.97850000  0.63100000  0.38160000  1.0 -0.1743196246
C  C65  1  0.42090000  0.10760000  0.00000000  1.0 -0.149809087
C  C66  1  0.57910000  0.89240000  0.00000000  1.0 -0.149809087
C  C67  1  0.10760000  0.57910000  0.50000000  1.0 -0.149809087
C  C68  1  0.89240000  0.42090000  0.50000000  1.0 -0.149809087
C  C69  1  0.31410000  0.84290000  0.00000000  1.0 0.0609881185
C  C70  1  0.68590000  0.15710000  0.00000000  1.0 0.0609881185
C  C71  1  0.84290000  0.68590000  0.50000000  1.0 0.0609881185
C  C72  1  0.15710000  0.31410000  0.50000000  1.0 0.0609881185
C  C73  1  0.25330000  0.81860000  0.89770000  1.0 -0.1426517232
C  C74  1  0.74670000  0.18140000  0.89770000  1.0 -0.1426517232
C  C75  1  0.81860000  0.74670000  0.39770000  1.0 -0.1426517232
C  C76  1  0.18140000  0.25330000  0.39770000  1.0 -0.1426517232
C  C77  1  0.74670000  0.18140000  0.10230000  1.0 -0.1426517232
C  C78  1  0.25330000  0.81860000  0.10230000  1.0 -0.1426517232
C  C79  1  0.18140000  0.25330000  0.60230000  1.0 -0.1426517232
C  C80  1  0.81860000  0.74670000  0.60230000  1.0 -0.1426517232
C  C81  1  0.21760000  0.73380000  0.89930000  1.0 -0.0696004912
C  C82  1  0.78240000  0.26620000  0.89930000  1.0 -0.0696004912
C  C83  1  0.73380000  0.78240000  0.39930000  1.0 -0.0696004912
C  C84  1  0.26620000  0.21760000  0.39930000  1.0 -0.0696004912
C  C85  1  0.78240000  0.26620000  0.10070000  1.0 -0.0696004912
C  C86  1  0.21760000  0.73380000  0.10070000  1.0 -0.0696004912
C  C87  1  0.26620000  0.21760000  0.60070000  1.0 -0.0696004912
C  C88  1  0.73380000  0.78240000  0.60070000  1.0 -0.0696004912
C  C89  1  0.29380000  0.69480000  0.91560000  1.0 0.0151534431
C  C90  1  0.70620000  0.30520000  0.91560000  1.0 0.0151534431
C  C91  1  0.69480000  0.70620000  0.41560000  1.0 0.0151534431
C  C92  1  0.30520000  0.29380000  0.41560000  1.0 0.0151534431
C  C93  1  0.70620000  0.30520000  0.08440000  1.0 0.0151534431
C  C94  1  0.29380000  0.69480000  0.08440000  1.0 0.0151534431
C  C95  1  0.30520000  0.29380000  0.58440000  1.0 0.0151534431
C  C96  1  0.69480000  0.70620000  0.58440000  1.0 0.0151534431
C  C97  1  0.33410000  0.77990000  0.90980000  1.0 -0.0616824985
C  C98  1  0.66590000  0.22010000  0.90980000  1.0 -0.0616824985
C  C99  1  0.77990000  0.66590000  0.40980000  1.0 -0.0616824985
C  C100  1  0.22010000  0.33410000  0.40980000  1.0 -0.0616824985
C  C101  1  0.66590000  0.22010000  0.09020000  1.0 -0.0616824985
C  C102  1  0.33410000  0.77990000  0.09020000  1.0 -0.0616824985
C  C103  1  0.22010000  0.33410000  0.59020000  1.0 -0.0616824985
C  C104  1  0.77990000  0.66590000  0.59020000  1.0 -0.0616824985
N  N1  1  0.23680000  0.67300000  0.00000000  1.0 -0.0200881096
N  N2  1  0.76320000  0.32700000  0.00000000  1.0 -0.0200881096
N  N3  1  0.67300000  0.76320000  0.50000000  1.0 -0.0200881096
N  N4  1  0.32700000  0.23680000  0.50000000  1.0 -0.0200881096
N  N5  1  0.18450000  0.43310000  0.00000000  1.0 -0.2628211625
N  N6  1  0.81550000  0.56690000  0.00000000  1.0 -0.2628211625
N  N7  1  0.43310000  0.81550000  0.50000000  1.0 -0.2628211625
N  N8  1  0.56690000  0.18450000  0.50000000  1.0 -0.2628211625
N  N9  1  0.16110000  0.28950000  0.00000000  1.0 0.011002842
N  N10  1  0.83890000  0.71050000  0.00000000  1.0 0.011002842
N  N11  1  0.28950000  0.83890000  0.50000000  1.0 0.011002842
N  N12  1  0.71050000  0.16110000  0.50000000  1.0 0.011002842
O  O1  1  0.40720000  0.06990000  0.35250000  1.0 -0.5442431666
O  O2  1  0.59280000  0.93010000  0.35250000  1.0 -0.5442431666
O  O3  1  0.06990000  0.59280000  0.85250000  1.0 -0.5442431666
O  O4  1  0.93010000  0.40720000  0.85250000  1.0 -0.5442431666
O  O5  1  0.59280000  0.93010000  0.64750000  1.0 -0.5442431666
O  O6  1  0.40720000  0.06990000  0.64750000  1.0 -0.5442431666
O  O7  1  0.93010000  0.40720000  0.14750000  1.0 -0.5442431666
O  O8  1  0.06990000  0.59280000  0.14750000  1.0 -0.5442431666
O  O9  1  0.45250000  0.18960000  0.24370000  1.0 -0.5658020698
O  O10  1  0.54750000  0.81040000  0.24370000  1.0 -0.5658020698
O  O11  1  0.18960000  0.54750000  0.74370000  1.0 -0.5658020698
O  O12  1  0.81040000  0.45250000  0.74370000  1.0 -0.5658020698
O  O13  1  0.54750000  0.81040000  0.75630000  1.0 -0.5658020698
O  O14  1  0.45250000  0.18960000  0.75630000  1.0 -0.5658020698
O  O15  1  0.81040000  0.45250000  0.25630000  1.0 -0.5658020698
O  O16  1  0.18960000  0.54750000  0.25630000  1.0 -0.5658020698
