# DDEC6 charges by PACMAN v1.1 (https://github.com/mtap-research/PACMAN-charge/)
data_XOMGIQ_FSR_pacman
_symmetry_space_group_name_H-M   'P 1'
_cell_length_a   12.24520000
_cell_length_b   12.24520000
_cell_length_c   25.76060000
_cell_angle_alpha   78.18030000
_cell_angle_beta   101.82000000
_cell_angle_gamma   122.79100000
_symmetry_Int_Tables_number   1
_chemical_formula_structural   CrAgB2H22C19N3O7F8
_chemical_formula_sum   'Cr4 Ag4 B8 H88 C76 N12 O28 F32'
_cell_volume   3157.54567804
_cell_formula_units_Z   4
loop_
 _symmetry_equiv_pos_site_id
 _symmetry_equiv_pos_as_xyz
  1  'x, y, z'
loop_
 _atom_site_type_symbol
 _atom_site_label
 _atom_site_symmetry_multiplicity
 _atom_site_fract_x
 _atom_site_fract_y
 _atom_site_fract_z
 _atom_site_occupancy
 _atom_site_charge
Cr  Cr1  1  0.40704000  0.86770000  0.66248000  1.0 1.4379098377
Cr  Cr2  1  0.86770000  0.40704000  0.83752000  1.0 1.4379098377
Cr  Cr3  1  0.59296000  0.13230000  0.33752000  1.0 1.4379098377
Cr  Cr4  1  0.13230000  0.59296000  0.16248000  1.0 1.4379098377
Ag  Ag1  1  0.64193000  0.74991000  0.96948000  1.0 0.4314143918
Ag  Ag2  1  0.74991000  0.64193000  0.53052000  1.0 0.4314143918
Ag  Ag3  1  0.35807000  0.25009000  0.03052000  1.0 0.4314143918
Ag  Ag4  1  0.25009000  0.35807000  0.46948000  1.0 0.4314143918
B  B1  1  0.97810000  0.97330000  0.99140000  1.0 0.1712875768
B  B2  1  0.97330000  0.97810000  0.50860000  1.0 0.1712875768
B  B3  1  0.02190000  0.02670000  0.00860000  1.0 0.1712875768
B  B4  1  0.02670000  0.02190000  0.49140000  1.0 0.1712875768
B  B5  1  0.90180000  0.04760000  0.96410000  1.0 0.1968437656
B  B6  1  0.04760000  0.90180000  0.53590000  1.0 0.1968437656
B  B7  1  0.09820000  0.95240000  0.03590000  1.0 0.1968437656
B  B8  1  0.95240000  0.09820000  0.46410000  1.0 0.1968437656
H  H1  1  0.12040000  0.26740000  0.04490000  1.0 0.1290143417
H  H2  1  0.26740000  0.12040000  0.45510000  1.0 0.1290143417
H  H3  1  0.87960000  0.73260000  0.95510000  1.0 0.1290143417
H  H4  1  0.73260000  0.87960000  0.54490000  1.0 0.1290143417
H  H5  1  0.04990000  0.30110000  0.07950000  1.0 0.1033407039
H  H6  1  0.30110000  0.04990000  0.42050000  1.0 0.1033407039
H  H7  1  0.95010000  0.69890000  0.92050000  1.0 0.1033407039
H  H8  1  0.69890000  0.95010000  0.57950000  1.0 0.1033407039
H  H9  1  0.99900000  0.15200000  0.07500000  1.0 0.1712875768
H  H10  1  0.15200000  0.99900000  0.42500000  1.0 0.1712875768
H  H11  1  0.00100000  0.84800000  0.92500000  1.0 0.1712875768
H  H12  1  0.84800000  0.00100000  0.57500000  1.0 0.1712875768
H  H13  1  0.93300000  0.18300000  0.99250000  1.0 0.2708592824
H  H14  1  0.18300000  0.93300000  0.50750000  1.0 0.2708592824
H  H15  1  0.06700000  0.81700000  0.00750000  1.0 0.2708592824
H  H16  1  0.81700000  0.06700000  0.49250000  1.0 0.2708592824
H  H17  1  0.78210000  0.10170000  0.75410000  1.0 0.1595098198
H  H18  1  0.10170000  0.78210000  0.74590000  1.0 0.1595098198
H  H19  1  0.21790000  0.89830000  0.24590000  1.0 0.1595098198
H  H20  1  0.89830000  0.21790000  0.25410000  1.0 0.1595098198
H  H21  1  0.72110000  0.07510000  0.80790000  1.0 0.1712875768
H  H22  1  0.07510000  0.72110000  0.69210000  1.0 0.1712875768
H  H23  1  0.27890000  0.92490000  0.19210000  1.0 0.1712875768
H  H24  1  0.92490000  0.27890000  0.30790000  1.0 0.1712875768
H  H25  1  0.77710000  0.98890000  0.79960000  1.0 0.1506443116
H  H26  1  0.98890000  0.77710000  0.70040000  1.0 0.1506443116
H  H27  1  0.22290000  0.01110000  0.20040000  1.0 0.1506443116
H  H28  1  0.01110000  0.22290000  0.29960000  1.0 0.1506443116
H  H29  1  0.32230000  0.54490000  0.80740000  1.0 0.1595098198
H  H30  1  0.54490000  0.32230000  0.69260000  1.0 0.1595098198
H  H31  1  0.67770000  0.45510000  0.19260000  1.0 0.1595098198
H  H32  1  0.45510000  0.67770000  0.30740000  1.0 0.1595098198
H  H33  1  0.31640000  0.63700000  0.84140000  1.0 0.1595098198
H  H34  1  0.63700000  0.31640000  0.65860000  1.0 0.1595098198
H  H35  1  0.68360000  0.36300000  0.15860000  1.0 0.1595098198
H  H36  1  0.36300000  0.68360000  0.34140000  1.0 0.1595098198
H  H37  1  0.20850000  0.57710000  0.79180000  1.0 0.1712875768
H  H38  1  0.57710000  0.20850000  0.70820000  1.0 0.1712875768
H  H39  1  0.79150000  0.42290000  0.20820000  1.0 0.1712875768
H  H40  1  0.42290000  0.79150000  0.29180000  1.0 0.1712875768
H  H41  1  0.33650000  0.96390000  0.06440000  1.0 0.1399650432
H  H42  1  0.96390000  0.33650000  0.43560000  1.0 0.1399650432
H  H43  1  0.66350000  0.03610000  0.93560000  1.0 0.1399650432
H  H44  1  0.03610000  0.66350000  0.56440000  1.0 0.1399650432
H  H45  1  0.35850000  0.90890000  0.01870000  1.0 0.1399650432
H  H46  1  0.90890000  0.35850000  0.48130000  1.0 0.1399650432
H  H47  1  0.64150000  0.09110000  0.98130000  1.0 0.1399650432
H  H48  1  0.09110000  0.64150000  0.51870000  1.0 0.1399650432
H  H49  1  0.46940000  0.96540000  0.06780000  1.0 0.1506443116
H  H50  1  0.96540000  0.46940000  0.43220000  1.0 0.1506443116
H  H51  1  0.53060000  0.03460000  0.93220000  1.0 0.1506443116
H  H52  1  0.03460000  0.53060000  0.56780000  1.0 0.1506443116
H  H53  1  0.45380000  0.52700000  0.12880000  1.0 0.1712875768
H  H54  1  0.52700000  0.45380000  0.37120000  1.0 0.1712875768
H  H55  1  0.54620000  0.47300000  0.87120000  1.0 0.1712875768
H  H56  1  0.47300000  0.54620000  0.62880000  1.0 0.1712875768
H  H57  1  0.38030000  0.50550000  0.06940000  1.0 0.1506443116
H  H58  1  0.50550000  0.38030000  0.43060000  1.0 0.1506443116
H  H59  1  0.61970000  0.49450000  0.93060000  1.0 0.1506443116
H  H60  1  0.49450000  0.61970000  0.56940000  1.0 0.1506443116
H  H61  1  0.30930000  0.40330000  0.11880000  1.0 0.1506443116
H  H62  1  0.40330000  0.30930000  0.38120000  1.0 0.1506443116
H  H63  1  0.69070000  0.59670000  0.88120000  1.0 0.1506443116
H  H64  1  0.59670000  0.69070000  0.61880000  1.0 0.1506443116
H  H65  1  0.85670000  0.53030000  0.99680000  1.0 0.1290143417
H  H66  1  0.53030000  0.85670000  0.50320000  1.0 0.1290143417
H  H67  1  0.14330000  0.46970000  0.00320000  1.0 0.1290143417
H  H68  1  0.46970000  0.14330000  0.49680000  1.0 0.1290143417
H  H69  1  0.75350000  0.40830000  0.03290000  1.0 0.1399650432
H  H70  1  0.40830000  0.75350000  0.46710000  1.0 0.1399650432
H  H71  1  0.24650000  0.59170000  0.96710000  1.0 0.1399650432
H  H72  1  0.59170000  0.24650000  0.53290000  1.0 0.1399650432
H  H73  1  0.88100000  0.41360000  0.02260000  1.0 0.1595098198
H  H74  1  0.41360000  0.88100000  0.47740000  1.0 0.1595098198
H  H75  1  0.11900000  0.58640000  0.97740000  1.0 0.1595098198
H  H76  1  0.58640000  0.11900000  0.52260000  1.0 0.1595098198
H  H77  1  0.94920000  0.78860000  0.19110000  1.0 0.1399650432
H  H78  1  0.78860000  0.94920000  0.30890000  1.0 0.1399650432
H  H79  1  0.05080000  0.21140000  0.80890000  1.0 0.1399650432
H  H80  1  0.21140000  0.05080000  0.69110000  1.0 0.1399650432
H  H81  1  0.80550000  0.69830000  0.16240000  1.0 0.1290143417
H  H82  1  0.69830000  0.80550000  0.33760000  1.0 0.1290143417
H  H83  1  0.19450000  0.30170000  0.83760000  1.0 0.1290143417
H  H84  1  0.30170000  0.19450000  0.66240000  1.0 0.1290143417
H  H85  1  0.91230000  0.82550000  0.12950000  1.0 0.117645543
H  H86  1  0.82550000  0.91230000  0.37050000  1.0 0.117645543
H  H87  1  0.08770000  0.17450000  0.87050000  1.0 0.117645543
H  H88  1  0.17450000  0.08770000  0.62950000  1.0 0.117645543
C  C1  1  0.03650000  0.24030000  0.05590000  1.0 -0.2623580956
C  C2  1  0.24030000  0.03650000  0.44410000  1.0 -0.2623580956
C  C3  1  0.96350000  0.75970000  0.94410000  1.0 -0.2623580956
C  C4  1  0.75970000  0.96350000  0.55590000  1.0 -0.2623580956
C  C5  1  0.73134000  0.03426000  0.78171000  1.0 -0.5688217842
C  C6  1  0.03426000  0.73134000  0.71829000  1.0 -0.5688217842
C  C7  1  0.26866000  0.96574000  0.21829000  1.0 -0.5688217842
C  C8  1  0.96574000  0.26866000  0.28171000  1.0 -0.5688217842
C  C9  1  0.59949000  0.93803000  0.75665000  1.0 0.4603501669
C  C10  1  0.93803000  0.59949000  0.74335000  1.0 0.4603501669
C  C11  1  0.40051000  0.06197000  0.24335000  1.0 0.4603501669
C  C12  1  0.06197000  0.40051000  0.25665000  1.0 0.4603501669
C  C13  1  0.51569000  0.82011000  0.78700000  1.0 -0.3590641916
C  C14  1  0.82011000  0.51569000  0.71300000  1.0 -0.3590641916
C  C15  1  0.48431000  0.17989000  0.21300000  1.0 -0.3590641916
C  C16  1  0.17989000  0.48431000  0.28700000  1.0 -0.3590641916
C  C17  1  0.38491000  0.72969000  0.76913000  1.0 0.4534211493
C  C18  1  0.72969000  0.38491000  0.73087000  1.0 0.4534211493
C  C19  1  0.61509000  0.27031000  0.23087000  1.0 0.4534211493
C  C20  1  0.27031000  0.61509000  0.26913000  1.0 0.4534211493
C  C21  1  0.30069000  0.61191000  0.80558000  1.0 -0.5464732884
C  C22  1  0.61191000  0.30069000  0.69442000  1.0 -0.5448154249
C  C23  1  0.69931000  0.38809000  0.19442000  1.0 -0.5464732884
C  C24  1  0.38809000  0.69931000  0.30558000  1.0 -0.5464732884
C  C25  1  0.56492000  0.79548000  0.84022000  1.0 0.2883452847
C  C26  1  0.79548000  0.56492000  0.65978000  1.0 0.2883452847
C  C27  1  0.43508000  0.20452000  0.15978000  1.0 0.2883452847
C  C28  1  0.20452000  0.43508000  0.34022000  1.0 0.2883452847
C  C29  1  0.37487000  0.91693000  0.05698000  1.0 -0.5958062597
C  C30  1  0.91693000  0.37487000  0.44302000  1.0 -0.5958062597
C  C31  1  0.62513000  0.08307000  0.94302000  1.0 -0.5958062597
C  C32  1  0.08307000  0.62513000  0.55698000  1.0 -0.5958062597
C  C33  1  0.31425000  0.78375000  0.08757000  1.0 0.4603501669
C  C34  1  0.78375000  0.31425000  0.41243000  1.0 0.4603501669
C  C35  1  0.68575000  0.21625000  0.91243000  1.0 0.4603501669
C  C36  1  0.21625000  0.68575000  0.58757000  1.0 0.4603501669
C  C37  1  0.35152000  0.69648000  0.08193000  1.0 -0.3590641916
C  C38  1  0.69648000  0.35152000  0.41807000  1.0 -0.3590641916
C  C39  1  0.64848000  0.30352000  0.91807000  1.0 -0.3590641916
C  C40  1  0.30352000  0.64848000  0.58193000  1.0 -0.3590641916
C  C41  1  0.31305000  0.57355000  0.11302000  1.0 0.4658832214
C  C42  1  0.57355000  0.31305000  0.38698000  1.0 0.4658832214
C  C43  1  0.68695000  0.42645000  0.88698000  1.0 0.4658832214
C  C44  1  0.42645000  0.68695000  0.61302000  1.0 0.4658832214
C  C45  1  0.36889000  0.49571000  0.10700000  1.0 -0.563583199
C  C46  1  0.49571000  0.36889000  0.39300000  1.0 -0.563583199
C  C47  1  0.63111000  0.50429000  0.89300000  1.0 -0.563583199
C  C48  1  0.50429000  0.63111000  0.60700000  1.0 -0.563583199
C  C49  1  0.43847000  0.73633000  0.04344000  1.0 0.2883452847
C  C50  1  0.73633000  0.43847000  0.45656000  1.0 0.2883452847
C  C51  1  0.56153000  0.26367000  0.95656000  1.0 0.2883452847
C  C52  1  0.26367000  0.56153000  0.54344000  1.0 0.2883452847
C  C53  1  0.84651000  0.46589000  0.02800000  1.0 -0.563583199
C  C54  1  0.46589000  0.84651000  0.47200000  1.0 -0.563583199
C  C55  1  0.15349000  0.53411000  0.97200000  1.0 -0.563583199
C  C56  1  0.53411000  0.15349000  0.52800000  1.0 -0.563583199
C  C57  1  0.92027000  0.53533000  0.07680000  1.0 0.4603501669
C  C58  1  0.53533000  0.92027000  0.42320000  1.0 0.4603501669
C  C59  1  0.07973000  0.46467000  0.92320000  1.0 0.4603501669
C  C60  1  0.46467000  0.07973000  0.57680000  1.0 0.4603501669
C  C61  1  0.88522000  0.61258000  0.09441000  1.0 -0.325345669
C  C62  1  0.61258000  0.88522000  0.40559000  1.0 -0.325345669
C  C63  1  0.11478000  0.38742000  0.90559000  1.0 -0.325345669
C  C64  1  0.38742000  0.11478000  0.59441000  1.0 -0.325345669
C  C65  1  0.94222000  0.67380000  0.14210000  1.0 0.4351646564
C  C66  1  0.67380000  0.94222000  0.35790000  1.0 0.4351646564
C  C67  1  0.05778000  0.32620000  0.85790000  1.0 0.4314143918
C  C68  1  0.32620000  0.05778000  0.64210000  1.0 0.4314143918
C  C69  1  0.89853000  0.75327000  0.15758000  1.0 -0.5688217842
C  C70  1  0.75327000  0.89853000  0.34242000  1.0 -0.5688217842
C  C71  1  0.10147000  0.24673000  0.84242000  1.0 -0.5688217842
C  C72  1  0.24673000  0.10147000  0.65758000  1.0 -0.5688217842
C  C73  1  0.78728000  0.63092000  0.06160000  1.0 0.1399650432
C  C74  1  0.63092000  0.78728000  0.43840000  1.0 0.1399650432
C  C75  1  0.21272000  0.36908000  0.93840000  1.0 0.1399650432
C  C76  1  0.36908000  0.21272000  0.56160000  1.0 0.1399650432
N  N1  1  0.60229000  0.77531000  0.88342000  1.0 -0.4236918502
N  N2  1  0.77531000  0.60229000  0.61658000  1.0 -0.4236918502
N  N3  1  0.39771000  0.22469000  0.11658000  1.0 -0.4236918502
N  N4  1  0.22469000  0.39771000  0.38342000  1.0 -0.4236918502
N  N5  1  0.50595000  0.76545000  0.01184000  1.0 -0.4045094215
N  N6  1  0.76545000  0.50595000  0.48816000  1.0 -0.4045094215
N  N7  1  0.49405000  0.23455000  0.98816000  1.0 -0.4045094215
N  N8  1  0.23455000  0.49405000  0.51184000  1.0 -0.4045094215
N  N9  1  0.70590000  0.64030000  0.03413000  1.0 -0.3885989451
N  N10  1  0.64030000  0.70590000  0.46587000  1.0 -0.3885989451
N  N11  1  0.29410000  0.35970000  0.96587000  1.0 -0.3885989451
N  N12  1  0.35970000  0.29410000  0.53413000  1.0 -0.3885989451
O  O1  1  0.95110000  0.24090000  0.01106000  1.0 -0.121698564
O  O2  1  0.24090000  0.95110000  0.48894000  1.0 -0.121698564
O  O3  1  0.04890000  0.75910000  0.98894000  1.0 -0.121698564
O  O4  1  0.75910000  0.04890000  0.51106000  1.0 -0.121698564
O  O5  1  0.56644000  0.96908000  0.70888000  1.0 -0.499495846
O  O6  1  0.96908000  0.56644000  0.79112000  1.0 -0.499495846
O  O7  1  0.43356000  0.03092000  0.29112000  1.0 -0.499495846
O  O8  1  0.03092000  0.43356000  0.20888000  1.0 -0.499495846
O  O9  1  0.33000000  0.74212000  0.72339000  1.0 -0.4899698098
O  O10  1  0.74212000  0.33000000  0.77661000  1.0 -0.4899698098
O  O11  1  0.67000000  0.25788000  0.27661000  1.0 -0.4899698098
O  O12  1  0.25788000  0.67000000  0.22339000  1.0 -0.4899698098
O  O13  1  0.23238000  0.75578000  0.11819000  1.0 -0.499495846
O  O14  1  0.75578000  0.23238000  0.38181000  1.0 -0.499495846
O  O15  1  0.76762000  0.24422000  0.88181000  1.0 -0.499495846
O  O16  1  0.24422000  0.76762000  0.61819000  1.0 -0.499495846
O  O17  1  0.23262000  0.52578000  0.14703000  1.0 -0.499495846
O  O18  1  0.52578000  0.23262000  0.35297000  1.0 -0.499495846
O  O19  1  0.76738000  0.47422000  0.85297000  1.0 -0.499495846
O  O20  1  0.47422000  0.76738000  0.64703000  1.0 -0.4899698098
O  O21  1  0.02998000  0.66264000  0.17400000  1.0 -0.4899698098
O  O22  1  0.66264000  0.02998000  0.32600000  1.0 -0.4899698098
O  O23  1  0.97002000  0.33736000  0.82600000  1.0 -0.4899698098
O  O24  1  0.33736000  0.97002000  0.67400000  1.0 -0.4899698098
O  O25  1  0.00987000  0.51571000  0.10086000  1.0 -0.4899698098
O  O26  1  0.51571000  0.00987000  0.39914000  1.0 -0.4899698098
O  O27  1  0.99013000  0.48429000  0.89914000  1.0 -0.4899698098
O  O28  1  0.48429000  0.99013000  0.60086000  1.0 -0.4899698098
F  F1  1  0.02370000  0.92150000  0.04080000  1.0 0.0824193525
F  F2  1  0.92150000  0.02370000  0.45920000  1.0 0.0824193525
F  F3  1  0.97630000  0.07850000  0.95920000  1.0 0.0824193525
F  F4  1  0.07850000  0.97630000  0.54080000  1.0 0.0824193525
F  F5  1  0.94420000  0.86500000  0.96460000  1.0 -0.121698564
F  F6  1  0.86500000  0.94420000  0.53540000  1.0 -0.121698564
F  F7  1  0.05580000  0.13500000  0.03540000  1.0 -0.121698564
F  F8  1  0.13500000  0.05580000  0.46460000  1.0 -0.121698564
F  F9  1  0.85070000  0.93610000  0.99850000  1.0 0.0024842212
F  F10  1  0.93610000  0.85070000  0.50150000  1.0 0.0024842212
F  F11  1  0.14930000  0.06390000  0.00150000  1.0 0.0024842212
F  F12  1  0.06390000  0.14930000  0.49850000  1.0 0.0024842212
F  F13  1  0.01680000  0.07340000  0.95110000  1.0 0.0176000902
F  F14  1  0.07340000  0.01680000  0.54890000  1.0 0.0176000902
F  F15  1  0.98320000  0.92660000  0.04890000  1.0 0.0176000902
F  F16  1  0.92660000  0.98320000  0.45110000  1.0 0.0176000902
F  F17  1  0.11100000  0.07200000  0.97810000  1.0 0.0083243073
F  F18  1  0.07200000  0.11100000  0.52190000  1.0 0.0083243073
F  F19  1  0.88900000  0.92800000  0.02190000  1.0 0.0083243073
F  F20  1  0.92800000  0.88900000  0.47810000  1.0 0.0083243073
F  F21  1  0.86370000  0.98670000  0.97730000  1.0 0.1065407953
F  F22  1  0.98670000  0.86370000  0.52270000  1.0 0.1065407953
F  F23  1  0.13630000  0.01330000  0.02270000  1.0 0.1065407953
F  F24  1  0.01330000  0.13630000  0.47730000  1.0 0.1065407953
F  F25  1  0.82480000  0.02500000  0.91410000  1.0 -0.1803679579
F  F26  1  0.02500000  0.82480000  0.58590000  1.0 -0.1803679579
F  F27  1  0.17520000  0.97500000  0.08590000  1.0 -0.1803679579
F  F28  1  0.97500000  0.17520000  0.41410000  1.0 -0.1803679579
F  F29  1  0.91030000  0.14810000  0.98460000  1.0 0.0494480514
F  F30  1  0.14810000  0.91030000  0.51540000  1.0 0.0494480514
F  F31  1  0.08970000  0.85190000  0.01540000  1.0 0.0494480514
F  F32  1  0.85190000  0.08970000  0.48460000  1.0 0.0494480514
