# DDEC6 charges by PACMAN v1.1 (https://github.com/mtap-research/PACMAN-charge/)
data_XOMHIS_ASR_pacman
_symmetry_space_group_name_H-M   'P 1'
_cell_length_a   31.64740000
_cell_length_b   29.02600000
_cell_length_c   20.04600000
_cell_angle_alpha   77.95750000
_cell_angle_beta   63.76450000
_cell_angle_gamma   38.27800000
_symmetry_Int_Tables_number   1
_chemical_formula_structural   In6H36C94O43
_chemical_formula_sum   'In12 H72 C188 O86'
_cell_volume   9909.66646798
_cell_formula_units_Z   2
loop_
 _symmetry_equiv_pos_site_id
 _symmetry_equiv_pos_as_xyz
  1  'x, y, z'
loop_
 _atom_site_type_symbol
 _atom_site_label
 _atom_site_symmetry_multiplicity
 _atom_site_fract_x
 _atom_site_fract_y
 _atom_site_fract_z
 _atom_site_occupancy
 _atom_site_charge
In  In1  1  0.87356000  0.56908000  0.56828000  1.0 1.3078407067
In  In2  1  0.98908000  0.56828000  0.56908000  1.0 1.3078407067
In  In3  1  0.68092000  0.37644000  0.26092000  1.0 1.3078407067
In  In4  1  0.68172000  0.26092000  0.37644000  1.0 1.3078407067
In  In5  1  0.55028000  0.55866000  0.86516000  1.0 1.3589175063
In  In6  1  0.02590000  0.86516000  0.55866000  1.0 1.3589175063
In  In7  1  0.69134000  0.69972000  0.22410000  1.0 1.3589175063
In  In8  1  0.38484000  0.22410000  0.69972000  1.0 1.3589175063
In  In9  1  0.25936000  0.50172000  0.08634000  1.0 1.3687373716
In  In10  1  0.15258000  0.08634000  0.50172000  1.0 1.3687373716
In  In11  1  0.74828000  0.99064000  0.09742000  1.0 1.3687373716
In  In12  1  0.16366000  0.09742000  0.99064000  1.0 1.3687373716
H  H1  1  0.66980000  0.68420000  0.01040000  1.0 0.1319564915
H  H2  1  0.63560000  0.01040000  0.68420000  1.0 0.1319564915
H  H3  1  0.56580000  0.58020000  0.61440000  1.0 0.1319564915
H  H4  1  0.23960000  0.61440000  0.58020000  1.0 0.1319564915
H  H5  1  0.46920000  0.81400000  0.02180000  1.0 0.123159035
H  H6  1  0.69500000  0.02180000  0.81400000  1.0 0.123159035
H  H7  1  0.43600000  0.78080000  0.55500000  1.0 0.123159035
H  H8  1  0.22820000  0.55500000  0.78080000  1.0 0.123159035
H  H9  1  0.46980000  0.86280000  0.19320000  1.0 0.1319564915
H  H10  1  0.47420000  0.19320000  0.86280000  1.0 0.1319564915
H  H11  1  0.38720000  0.78020000  0.77580000  1.0 0.1319564915
H  H12  1  0.05680000  0.77580000  0.78020000  1.0 0.1319564915
H  H13  1  0.68750000  0.69350000  0.87050000  1.0 0.100881528
H  H14  1  0.74850000  0.87050000  0.69350000  1.0 0.100881528
H  H15  1  0.55650000  0.56250000  0.50150000  1.0 0.100881528
H  H16  1  0.37950000  0.50150000  0.56250000  1.0 0.100881528
H  H17  1  0.72020000  0.57200000  0.74100000  1.0 0.1096314358
H  H18  1  0.96680000  0.74100000  0.57200000  1.0 0.1096314358
H  H19  1  0.67800000  0.52980000  0.28320000  1.0 0.1096314358
H  H20  1  0.50900000  0.28320000  0.52980000  1.0 0.1096314358
H  H21  1  0.56000000  0.67620000  0.96340000  1.0 0.1319564915
H  H22  1  0.80040000  0.96340000  0.67620000  1.0 0.1319564915
H  H23  1  0.57380000  0.69000000  0.44960000  1.0 0.1319564915
H  H24  1  0.28660000  0.44960000  0.69000000  1.0 0.1319564915
H  H25  1  0.35870000  0.91850000  0.25950000  1.0 0.1319564915
H  H26  1  0.46330000  0.25950000  0.91850000  1.0 0.1319564915
H  H27  1  0.33150000  0.89130000  0.78670000  1.0 0.1319564915
H  H28  1  0.99050000  0.78670000  0.89130000  1.0 0.1319564915
H  H29  1  0.15690000  0.09530000  0.25350000  1.0 0.1481639612
H  H30  1  0.49430000  0.25350000  0.09530000  1.0 0.1481639612
H  H31  1  0.15470000  0.09310000  0.75570000  1.0 0.1481639612
H  H32  1  0.99650000  0.75570000  0.09310000  1.0 0.1481639612
H  H33  1  0.35380000  0.93960000  0.05960000  1.0 0.1319564915
H  H34  1  0.64700000  0.05960000  0.93960000  1.0 0.1319564915
H  H35  1  0.31040000  0.89620000  0.60300000  1.0 0.1319564915
H  H36  1  0.19040000  0.60300000  0.89620000  1.0 0.1319564915
H  H37  1  0.90490000  0.58030000  0.25050000  1.0 0.140033625
H  H38  1  0.26430000  0.25050000  0.58030000  1.0 0.140033625
H  H39  1  0.66970000  0.34510000  0.98570000  1.0 0.140033625
H  H40  1  0.99950000  0.98570000  0.34510000  1.0 0.140033625
H  H41  1  0.12330000  0.39670000  0.09510000  1.0 0.1319564915
H  H42  1  0.38490000  0.09510000  0.39670000  1.0 0.1319564915
H  H43  1  0.85330000  0.12670000  0.86510000  1.0 0.1319564915
H  H44  1  0.15490000  0.86510000  0.12670000  1.0 0.1319564915
H  H45  1  0.95640000  0.46820000  0.08140000  1.0 0.1319564915
H  H46  1  0.49400000  0.08140000  0.46820000  1.0 0.1319564915
H  H47  1  0.78180000  0.29360000  0.75600000  1.0 0.1319564915
H  H48  1  0.16860000  0.75600000  0.29360000  1.0 0.1319564915
H  H49  1  0.96950000  0.52630000  0.32670000  1.0 0.123159035
H  H50  1  0.17750000  0.32670000  0.52630000  1.0 0.123159035
H  H51  1  0.72370000  0.28050000  0.07250000  1.0 0.123159035
H  H52  1  0.92330000  0.07250000  0.28050000  1.0 0.123159035
H  H53  1  0.09440000  0.53080000  0.32000000  1.0 0.140033625
H  H54  1  0.05480000  0.32000000  0.53080000  1.0 0.140033625
H  H55  1  0.71920000  0.15560000  0.19520000  1.0 0.140033625
H  H56  1  0.93000000  0.19520000  0.15560000  1.0 0.140033625
H  H57  1  0.12220000  0.47480000  0.12560000  1.0 0.1319564915
H  H58  1  0.27740000  0.12560000  0.47480000  1.0 0.1319564915
H  H59  1  0.77520000  0.12780000  0.97260000  1.0 0.1319564915
H  H60  1  0.12440000  0.97260000  0.12780000  1.0 0.1319564915
H  H61  1  0.16750000  0.36650000  0.94530000  1.0 0.1319564915
H  H62  1  0.52070000  0.94530000  0.36650000  1.0 0.1319564915
H  H63  1  0.88350000  0.08250000  0.72930000  1.0 0.1319564915
H  H64  1  0.30470000  0.72930000  0.08250000  1.0 0.1319564915
H  H65  1  0.25950000  0.17970000  0.85530000  1.0 0.1481639612
H  H66  1  0.70550000  0.85530000  0.17970000  1.0 0.1481639612
H  H67  1  0.07030000  0.99050000  0.54450000  1.0 0.1481639612
H  H68  1  0.39470000  0.54450000  0.99050000  1.0 0.1481639612
H  H69  1  0.06520000  0.32180000  0.05440000  1.0 0.1319564915
H  H70  1  0.55860000  0.05440000  0.32180000  1.0 0.1319564915
H  H71  1  0.92820000  0.18480000  0.69140000  1.0 0.1319564915
H  H72  1  0.19560000  0.69140000  0.18480000  1.0 0.1319564915
C  C1  1  0.57721000  0.76861000  0.10819000  1.0 0.0199995401
C  C2  1  0.54599000  0.10819000  0.76861000  1.0 0.0199995401
C  C3  1  0.48139000  0.67279000  0.70401000  1.0 0.0199995401
C  C4  1  0.14181000  0.70401000  0.67279000  1.0 0.0199995401
C  C5  1  0.61654000  0.72454000  0.03646000  1.0 -0.1534538922
C  C6  1  0.62246000  0.03646000  0.72454000  1.0 -0.1534538922
C  C7  1  0.52546000  0.63346000  0.62754000  1.0 -0.1534538922
C  C8  1  0.21354000  0.62754000  0.63346000  1.0 -0.1534538922
C  C9  1  0.57660000  0.74060000  0.00380000  1.0 0.0800365176
C  C10  1  0.67900000  0.00380000  0.74060000  1.0 0.0800365176
C  C11  1  0.50940000  0.67340000  0.57100000  1.0 0.0800365176
C  C12  1  0.24620000  0.57100000  0.67340000  1.0 0.0800365176
C  C13  1  0.49600000  0.80320000  0.04360000  1.0 -0.1875234229
C  C14  1  0.65720000  0.04360000  0.80320000  1.0 -0.1875234229
C  C15  1  0.44680000  0.75400000  0.59280000  1.0 -0.1875234229
C  C16  1  0.20640000  0.59280000  0.75400000  1.0 -0.1875234229
C  C17  1  0.45480000  0.85000000  0.11440000  1.0 0.0800365176
C  C18  1  0.58080000  0.11440000  0.85000000  1.0 0.0800365176
C  C19  1  0.40000000  0.79520000  0.66920000  1.0 0.0800365176
C  C20  1  0.13560000  0.66920000  0.79520000  1.0 0.0800365176
C  C21  1  0.49604000  0.83224000  0.14616000  1.0 -0.1556082388
C  C22  1  0.52556000  0.14616000  0.83224000  1.0 -0.1556082388
C  C23  1  0.41776000  0.75396000  0.72444000  1.0 -0.1556082388
C  C24  1  0.10384000  0.72444000  0.75396000  1.0 -0.1556082388
C  C25  1  0.61785000  0.69105000  0.92935000  1.0 0.0615016436
C  C26  1  0.76175000  0.92935000  0.69105000  1.0 0.0615016436
C  C27  1  0.55895000  0.63215000  0.48825000  1.0 0.0615016436
C  C28  1  0.32065000  0.48825000  0.63215000  1.0 0.0615016436
C  C29  1  0.67400000  0.67580000  0.86540000  1.0 -0.1395041925
C  C30  1  0.78480000  0.86540000  0.67580000  1.0 -0.1395041925
C  C31  1  0.57420000  0.57600000  0.46520000  1.0 -0.1395041925
C  C32  1  0.38460000  0.46520000  0.57600000  1.0 -0.1395041925
C  C33  1  0.70851000  0.63451000  0.79589000  1.0 0.0199995401
C  C34  1  0.86109000  0.79589000  0.63451000  1.0 0.0199995401
C  C35  1  0.61549000  0.54149000  0.38891000  1.0 0.0199995401
C  C36  1  0.45411000  0.38891000  0.54149000  1.0 0.0199995401
C  C37  1  0.69339000  0.60319000  0.78781000  1.0 -0.1227143977
C  C38  1  0.91561000  0.78781000  0.60319000  1.0 -0.1227143977
C  C39  1  0.64681000  0.55661000  0.33439000  1.0 -0.1227143977
C  C40  1  0.46219000  0.33439000  0.55661000  1.0 -0.1227143977
C  C41  1  0.63700000  0.61880000  0.85180000  1.0 0.013514789
C  C42  1  0.89240000  0.85180000  0.61880000  1.0 0.013514789
C  C43  1  0.63120000  0.61300000  0.35760000  1.0 0.013514789
C  C44  1  0.39820000  0.35760000  0.61300000  1.0 0.013514789
C  C45  1  0.59870000  0.66410000  0.92170000  1.0 -0.1227143977
C  C46  1  0.81550000  0.92170000  0.66410000  1.0 -0.1227143977
C  C47  1  0.58590000  0.65130000  0.43450000  1.0 -0.1227143977
C  C48  1  0.32830000  0.43450000  0.65130000  1.0 -0.1227143977
C  C49  1  0.36967000  0.91867000  0.15453000  1.0 0.0657074357
C  C50  1  0.55713000  0.15453000  0.91867000  1.0 0.0657074357
C  C51  1  0.33133000  0.88033000  0.69287000  1.0 0.0657074357
C  C52  1  0.09547000  0.69287000  0.88033000  1.0 0.0657074357
C  C53  1  0.33126000  0.94486000  0.23134000  1.0 -0.1304157954
C  C54  1  0.49254000  0.23134000  0.94486000  1.0 -0.1227143977
C  C55  1  0.30514000  0.91874000  0.75746000  1.0 -0.1304157954
C  C56  1  0.01866000  0.75746000  0.91874000  1.0 -0.1304157954
C  C57  1  0.25227000  0.00987000  0.26933000  1.0 0.013514789
C  C58  1  0.46853000  0.26933000  0.00987000  1.0 0.013514789
C  C59  1  0.24013000  0.99773000  0.78147000  1.0 0.013514789
C  C60  1  0.98067000  0.78147000  0.99773000  1.0 0.0199995401
C  C61  1  0.21008000  0.05048000  0.22852000  1.0 -0.0902098549
C  C62  1  0.51092000  0.22852000  0.05048000  1.0 -0.0902098549
C  C63  1  0.19952000  0.03992000  0.73908000  1.0 -0.0902098549
C  C64  1  0.02148000  0.73908000  0.03992000  1.0 -0.0902098549
C  C65  1  0.24946000  0.02246000  0.14914000  1.0 0.013514789
C  C66  1  0.57894000  0.14914000  0.02246000  1.0 0.013514789
C  C67  1  0.22754000  0.00054000  0.67106000  1.0 0.013514789
C  C68  1  0.10086000  0.67106000  0.00054000  1.0 0.013514789
C  C69  1  0.32797000  0.95777000  0.11263000  1.0 -0.1304157954
C  C70  1  0.60163000  0.11263000  0.95777000  1.0 -0.1304157954
C  C71  1  0.29223000  0.92203000  0.64837000  1.0 -0.1304157954
C  C72  1  0.13737000  0.64837000  0.92203000  1.0 -0.1304157954
C  C73  1  0.62006000  0.74546000  0.14794000  1.0 0.5349619406
C  C74  1  0.48654000  0.14794000  0.74546000  1.0 0.5349619406
C  C75  1  0.50454000  0.62994000  0.76346000  1.0 0.5349619406
C  C76  1  0.10206000  0.76346000  0.62994000  1.0 0.540265718
C  C77  1  0.75610000  0.63150000  0.72630000  1.0 0.2504673674
C  C78  1  0.88610000  0.72630000  0.63150000  1.0 0.2504673674
C  C79  1  0.61850000  0.49390000  0.36390000  1.0 0.2504673674
C  C80  1  0.52370000  0.36390000  0.49390000  1.0 0.2504673674
C  C81  1  0.61587000  0.58887000  0.84613000  1.0 0.540265718
C  C82  1  0.94913000  0.84613000  0.58887000  1.0 0.540265718
C  C83  1  0.66113000  0.63413000  0.30087000  1.0 0.540265718
C  C84  1  0.40387000  0.30087000  0.63413000  1.0 0.540265718
C  C85  1  0.21259000  0.03899000  0.35521000  1.0 0.540265718
C  C86  1  0.39321000  0.35521000  0.03899000  1.0 0.540265718
C  C87  1  0.21101000  0.03741000  0.85679000  1.0 0.540265718
C  C88  1  0.89479000  0.85679000  0.03741000  1.0 0.540265718
C  C89  1  0.20456000  0.06236000  0.10464000  1.0 0.540265718
C  C90  1  0.62844000  0.10464000  0.06236000  1.0 0.540265718
C  C91  1  0.18764000  0.04544000  0.62156000  1.0 0.540265718
C  C92  1  0.14536000  0.62156000  0.04544000  1.0 0.540265718
C  C93  1  0.91808000  0.53448000  0.16972000  1.0 0.0199995401
C  C94  1  0.37772000  0.16972000  0.53448000  1.0 0.0199995401
C  C95  1  0.71552000  0.33192000  0.87228000  1.0 0.0199995401
C  C96  1  0.08028000  0.87228000  0.33192000  1.0 0.0199995401
C  C97  1  0.94125000  0.54105000  0.20655000  1.0 -0.1534538922
C  C98  1  0.31115000  0.20655000  0.54105000  1.0 -0.1534538922
C  C99  1  0.70895000  0.30875000  0.93885000  1.0 -0.1534538922
C  C100  1  0.04345000  0.93885000  0.30875000  1.0 -0.1534538922
C  C101  1  0.01829000  0.48969000  0.17891000  1.0 0.0800365176
C  C102  1  0.31311000  0.17891000  0.48969000  1.0 0.0800365176
C  C103  1  0.76031000  0.23171000  0.93689000  1.0 0.0800365176
C  C104  1  0.07109000  0.93689000  0.23171000  1.0 0.0800365176
C  C105  1  0.07154000  0.43094000  0.11446000  1.0 -0.1822330636
C  C106  1  0.38306000  0.11446000  0.43094000  1.0 -0.1822330636
C  C107  1  0.81906000  0.17846000  0.86694000  1.0 -0.1822330636
C  C108  1  0.13554000  0.86694000  0.17846000  1.0 -0.1822330636
C  C109  1  0.04920000  0.42220000  0.07780000  1.0 0.0800365176
C  C110  1  0.45080000  0.07780000  0.42220000  1.0 0.0800365176
C  C111  1  0.82780000  0.20080000  0.79920000  1.0 0.0800365176
C  C112  1  0.17220000  0.79920000  0.20080000  1.0 0.0800365176
C  C113  1  0.97198000  0.47378000  0.10522000  1.0 -0.1534538922
C  C114  1  0.44902000  0.10522000  0.47378000  1.0 -0.1534538922
C  C115  1  0.77622000  0.27802000  0.80098000  1.0 -0.1534538922
C  C116  1  0.14478000  0.80098000  0.27802000  1.0 -0.1534538922
C  C117  1  0.04138000  0.50018000  0.21982000  1.0 0.0657074357
C  C118  1  0.23862000  0.21982000  0.50018000  1.0 0.0657074357
C  C119  1  0.74982000  0.20862000  0.01138000  1.0 0.0657074357
C  C120  1  0.03018000  0.01138000  0.20862000  1.0 0.0657074357
C  C121  1  0.00678000  0.52018000  0.29862000  1.0 -0.1304157954
C  C122  1  0.17442000  0.29862000  0.52018000  1.0 -0.1304157954
C  C123  1  0.72982000  0.24322000  0.07558000  1.0 -0.1304157954
C  C124  1  0.95138000  0.07558000  0.24322000  1.0 -0.1304157954
C  C125  1  0.02572000  0.53132000  0.33728000  1.0 -0.0318152896
C  C126  1  0.10568000  0.33728000  0.53132000  1.0 -0.0318152896
C  C127  1  0.71868000  0.22428000  0.14432000  1.0 -0.0318152896
C  C128  1  0.91272000  0.14432000  0.22428000  1.0 -0.0318152896
C  C129  1  0.08113000  0.52293000  0.29507000  1.0 -0.0797175189
C  C130  1  0.10087000  0.29507000  0.52293000  1.0 -0.0797175189
C  C131  1  0.72707000  0.16887000  0.14913000  1.0 -0.0797175189
C  C132  1  0.95493000  0.14913000  0.16887000  1.0 -0.0797175189
C  C133  1  0.11582000  0.50282000  0.21618000  1.0 0.013514789
C  C134  1  0.16518000  0.21618000  0.50282000  1.0 0.013514789
C  C135  1  0.74718000  0.13418000  0.08482000  1.0 0.013514789
C  C136  1  0.03382000  0.08482000  0.13418000  1.0 0.013514789
C  C137  1  0.09695000  0.49015000  0.17905000  1.0 -0.1304157954
C  C138  1  0.23385000  0.17905000  0.49015000  1.0 -0.1304157954
C  C139  1  0.75985000  0.15305000  0.01615000  1.0 -0.1304157954
C  C140  1  0.07095000  0.01615000  0.15305000  1.0 -0.1304157954
C  C141  1  0.10771000  0.35371000  0.01249000  1.0 0.0657074357
C  C142  1  0.52609000  0.01249000  0.35371000  1.0 0.0657074357
C  C143  1  0.89629000  0.14229000  0.72391000  1.0 0.0657074357
C  C144  1  0.23751000  0.72391000  0.14229000  1.0 0.0657074357
C  C145  1  0.16604000  0.33544000  0.94796000  1.0 -0.1304157954
C  C146  1  0.55056000  0.94796000  0.33544000  1.0 -0.1304157954
C  C147  1  0.91456000  0.08396000  0.69944000  1.0 -0.1304157954
C  C148  1  0.30204000  0.69944000  0.08396000  1.0 -0.1304157954
C  C149  1  0.22025000  0.27205000  0.88955000  1.0 0.0026460319
C  C150  1  0.61815000  0.88955000  0.27205000  1.0 0.0026460319
C  C151  1  0.97795000  0.02975000  0.63185000  1.0 0.0026460319
C  C152  1  0.36045000  0.63185000  0.02975000  1.0 0.0026460319
C  C153  1  0.22041000  0.22441000  0.89379000  1.0 -0.0797175189
C  C154  1  0.66139000  0.89379000  0.22441000  1.0 -0.0797175189
C  C155  1  0.02559000  0.02959000  0.58861000  1.0 -0.0797175189
C  C156  1  0.35621000  0.58861000  0.02959000  1.0 -0.0797175189
C  C157  1  0.16206000  0.24226000  0.95574000  1.0 -0.0033000313
C  C158  1  0.63994000  0.95574000  0.24226000  1.0 -0.0033000313
C  C159  1  0.00774000  0.08794000  0.61006000  1.0 -0.0033000313
C  C160  1  0.29426000  0.61006000  0.08794000  1.0 -0.0033000313
C  C161  1  0.10527000  0.30827000  0.01393000  1.0 -0.1304157954
C  C162  1  0.57253000  0.01393000  0.30827000  1.0 -0.1304157954
C  C163  1  0.94173000  0.14473000  0.67747000  1.0 -0.1304157954
C  C164  1  0.23607000  0.67747000  0.14473000  1.0 -0.1304157954
C  C165  1  0.83402000  0.59442000  0.19618000  1.0 0.540265718
C  C166  1  0.37538000  0.19618000  0.59442000  1.0 0.540265718
C  C167  1  0.65558000  0.41598000  0.87462000  1.0 0.540265718
C  C168  1  0.05382000  0.87462000  0.41598000  1.0 0.540265718
C  C169  1  0.98808000  0.55168000  0.42172000  1.0 0.6068139094
C  C170  1  0.03852000  0.42172000  0.55168000  1.0 0.6068139094
C  C171  1  0.69832000  0.26192000  0.21148000  1.0 0.6068139094
C  C172  1  0.82828000  0.21148000  0.26192000  1.0 0.6068139094
C  C173  1  0.17331000  0.49631000  0.16929000  1.0 0.5498434919
C  C174  1  0.16109000  0.16929000  0.49631000  1.0 0.5498434919
C  C175  1  0.75369000  0.07669000  0.08891000  1.0 0.5498434919
C  C176  1  0.08071000  0.08891000  0.07669000  1.0 0.5498434919
C  C177  1  0.27928000  0.25568000  0.82092000  1.0 0.5498434919
C  C178  1  0.64412000  0.82092000  0.25568000  1.0 0.5498434919
C  C179  1  0.99432000  0.97072000  0.60588000  1.0 0.5498434919
C  C180  1  0.42908000  0.60588000  0.97072000  1.0 0.5498434919
C  C181  1  0.16340000  0.19000000  0.96080000  1.0 0.540265718
C  C182  1  0.68580000  0.96080000  0.19000000  1.0 0.540265718
C  C183  1  0.06000000  0.08660000  0.56420000  1.0 0.540265718
C  C184  1  0.28920000  0.56420000  0.08660000  1.0 0.540265718
C  C185  1  0.77600000  0.60800000  0.73580000  1.0 0.2504673674
C  C186  1  0.88020000  0.73580000  0.60800000  1.0 0.2504673674
C  C187  1  0.64200000  0.47400000  0.36980000  1.0 0.2504673674
C  C188  1  0.51420000  0.36980000  0.47400000  1.0 0.2504673674
O  O1  1  0.69074000  0.69434000  0.11246000  1.0 -0.4949216527
O  O2  1  0.50246000  0.11246000  0.69434000  1.0 -0.4949216527
O  O3  1  0.55566000  0.55926000  0.74754000  1.0 -0.4949216527
O  O4  1  0.13754000  0.74754000  0.55926000  1.0 -0.4949216527
O  O5  1  0.58347000  0.77845000  0.21695000  1.0 -0.5189387423
O  O6  1  0.42113000  0.21695000  0.77845000  1.0 -0.5189387423
O  O7  1  0.47155000  0.66653000  0.82887000  1.0 -0.5189387423
O  O8  1  0.03305000  0.82887000  0.66653000  1.0 -0.5189387423
O  O9  1  0.80110000  0.57930000  0.66770000  1.0 -0.3323705775
O  O10  1  0.95190000  0.66770000  0.57930000  1.0 -0.3323705775
O  O11  1  0.67070000  0.44890000  0.29810000  1.0 -0.3323705775
O  O12  1  0.58230000  0.29810000  0.44890000  1.0 -0.3323705775
O  O13  1  0.75480000  0.67420000  0.72980000  1.0 -0.0650308562
O  O14  1  0.84120000  0.72980000  0.67420000  1.0 -0.0650308562
O  O15  1  0.57580000  0.49520000  0.40880000  1.0 -0.0650308562
O  O16  1  0.52020000  0.40880000  0.49520000  1.0 -0.0646348727
O  O17  1  0.64181000  0.55481000  0.78579000  1.0 -0.4568660838
O  O18  1  0.01759000  0.78579000  0.55481000  1.0 -0.4568660838
O  O19  1  0.69519000  0.60819000  0.23241000  1.0 -0.4568660838
O  O20  1  0.46421000  0.23241000  0.60819000  1.0 -0.4568660838
O  O21  1  0.56805000  0.60185000  0.90655000  1.0 -0.4812000674
O  O22  1  0.92355000  0.90655000  0.60185000  1.0 -0.4812000674
O  O23  1  0.64815000  0.68195000  0.32645000  1.0 -0.4812000674
O  O24  1  0.34345000  0.32645000  0.68195000  1.0 -0.4812000674
O  O25  1  0.14327000  0.10461000  0.39019000  1.0 -0.5189387423
O  O26  1  0.36193000  0.39019000  0.10461000  1.0 -0.5189387423
O  O27  1  0.14539000  0.10673000  0.88807000  1.0 -0.5189387423
O  O28  1  0.85981000  0.88807000  0.10673000  1.0 -0.5189387423
O  O29  1  0.25072000  0.99562000  0.39138000  1.0 -0.5098948262
O  O30  1  0.36228000  0.39138000  0.99562000  1.0 -0.5098948262
O  O31  1  0.25438000  0.99928000  0.88772000  1.0 -0.5098948262
O  O32  1  0.85862000  0.88772000  0.99928000  1.0 -0.5098948262
O  O33  1  0.24617000  0.03079000  0.03161000  1.0 -0.530786736
O  O34  1  0.69143000  0.03161000  0.03079000  1.0 -0.530786736
O  O35  1  0.21921000  0.00383000  0.55857000  1.0 -0.530786736
O  O36  1  0.21839000  0.55857000  0.00383000  1.0 -0.530786736
O  O37  1  0.13488000  0.12028000  0.13452000  1.0 -0.4702738804
O  O38  1  0.61032000  0.13452000  0.12028000  1.0 -0.4702738804
O  O39  1  0.12972000  0.11512000  0.63968000  1.0 -0.4702738804
O  O40  1  0.11548000  0.63968000  0.11512000  1.0 -0.4702738804
O  O41  1  0.81432000  0.59592000  0.15208000  1.0 -0.5189387423
O  O42  1  0.43768000  0.15208000  0.59592000  1.0 -0.5189387423
O  O43  1  0.65408000  0.43568000  0.81232000  1.0 -0.5189387423
O  O44  1  0.09792000  0.81232000  0.43568000  1.0 -0.5189387423
O  O45  1  0.78463000  0.64203000  0.25917000  1.0 -0.5189387423
O  O46  1  0.31417000  0.25917000  0.64203000  1.0 -0.5189387423
O  O47  1  0.60797000  0.46537000  0.93583000  1.0 -0.5189387423
O  O48  1  0.99083000  0.93583000  0.46537000  1.0 -0.5189387423
O  O49  1  0.94636000  0.55036000  0.45484000  1.0 -0.5367951077
O  O50  1  0.04844000  0.45484000  0.55036000  1.0 -0.5367951077
O  O51  1  0.69964000  0.30364000  0.20156000  1.0 -0.5367951077
O  O52  1  0.79516000  0.20156000  0.30364000  1.0 -0.5367951077
O  O53  1  0.00426000  0.56586000  0.45354000  1.0 -0.530786736
O  O54  1  0.97634000  0.45354000  0.56586000  1.0 -0.530786736
O  O55  1  0.68414000  0.24574000  0.27366000  1.0 -0.530786736
O  O56  1  0.79646000  0.27366000  0.24574000  1.0 -0.530786736
O  O57  1  0.18391000  0.51747000  0.20213000  1.0 -0.5098948262
O  O58  1  0.09649000  0.20213000  0.51747000  1.0 -0.5098948262
O  O59  1  0.73253000  0.06609000  0.15351000  1.0 -0.5098948262
O  O60  1  0.04787000  0.15351000  0.06609000  1.0 -0.5098948262
O  O61  1  0.20958000  0.47118000  0.09802000  1.0 -0.5189387423
O  O62  1  0.22122000  0.09802000  0.47118000  1.0 -0.5189387423
O  O63  1  0.77882000  0.04042000  0.02878000  1.0 -0.5189387423
O  O64  1  0.15198000  0.02878000  0.04042000  1.0 -0.5189387423
O  O65  1  0.34203000  0.18723000  0.77677000  1.0 -0.5367951077
O  O66  1  0.69397000  0.77677000  0.18723000  1.0 -0.5367951077
O  O67  1  0.06277000  0.90797000  0.55603000  1.0 -0.5367951077
O  O68  1  0.47323000  0.55603000  0.90797000  1.0 -0.5367951077
O  O69  1  0.26927000  0.30673000  0.80687000  1.0 -0.5033124071
O  O70  1  0.61713000  0.80687000  0.30673000  1.0 -0.5033124071
O  O71  1  0.94327000  0.98073000  0.63287000  1.0 -0.5033124071
O  O72  1  0.44313000  0.63287000  0.98073000  1.0 -0.5033124071
O  O73  1  0.22184000  0.12404000  0.91656000  1.0 -0.5033124071
O  O74  1  0.73756000  0.91656000  0.12404000  1.0 -0.5033124071
O  O75  1  0.12596000  0.02816000  0.51244000  1.0 -0.5033124071
O  O76  1  0.33344000  0.51244000  0.02816000  1.0 -0.5033124071
O  O77  1  0.10510000  0.21150000  0.01030000  1.0 -0.5098948262
O  O78  1  0.67310000  0.01030000  0.21150000  1.0 -0.5098948262
O  O79  1  0.03850000  0.14490000  0.57690000  1.0 -0.5098948262
O  O80  1  0.23970000  0.57690000  0.14490000  1.0 -0.5098948262
O  O81  1  0.88790000  0.61210000  0.61210000  1.0 -0.8959929329
O  O82  1  0.63790000  0.36210000  0.36210000  1.0 -0.8959929329
O  O83  1  0.79450000  0.62890000  0.74910000  1.0 -0.0797175189
O  O84  1  0.82750000  0.74910000  0.62890000  1.0 -0.0797175189
O  O85  1  0.62110000  0.45550000  0.42250000  1.0 -0.0797175189
O  O86  1  0.50090000  0.42250000  0.45550000  1.0 -0.0797175189
