# DDEC6 charges by PACMAN v1.1 (https://github.com/mtap-research/PACMAN-charge/)
data_XOMHEO_ASR_pacman
_symmetry_space_group_name_H-M   'P 1'
_cell_length_a   16.67220000
_cell_length_b   16.67220000
_cell_length_c   19.14000000
_cell_angle_alpha   74.93630000
_cell_angle_beta   105.06400000
_cell_angle_gamma   123.49400000
_symmetry_Int_Tables_number   1
_chemical_formula_structural   Zn8H18C50O31
_chemical_formula_sum   'Zn16 H36 C100 O62'
_cell_volume   4239.23545558
_cell_formula_units_Z   2
loop_
 _symmetry_equiv_pos_site_id
 _symmetry_equiv_pos_as_xyz
  1  'x, y, z'
loop_
 _atom_site_type_symbol
 _atom_site_label
 _atom_site_symmetry_multiplicity
 _atom_site_fract_x
 _atom_site_fract_y
 _atom_site_fract_z
 _atom_site_occupancy
 _atom_site_charge
Zn  Zn1  1  0.43025000  0.91119000  0.46433000  1.0 0.9375592821
Zn  Zn2  1  0.91119000  0.43025000  0.03567000  1.0 0.9375592821
Zn  Zn3  1  0.56975000  0.08881000  0.53567000  1.0 0.9375592821
Zn  Zn4  1  0.08881000  0.56975000  0.96433000  1.0 0.9375592821
Zn  Zn5  1  0.60027000  0.76981000  0.20163000  1.0 0.5455542557
Zn  Zn6  1  0.76981000  0.60027000  0.29837000  1.0 0.5455542557
Zn  Zn7  1  0.39973000  0.23019000  0.79837000  1.0 0.5455542557
Zn  Zn8  1  0.23019000  0.39973000  0.70163000  1.0 0.5455542557
Zn  Zn9  1  0.59098000  0.61804000  0.17926000  1.0 0.6129531018
Zn  Zn10  1  0.61804000  0.59098000  0.32074000  1.0 0.6129531018
Zn  Zn11  1  0.40902000  0.38196000  0.82074000  1.0 0.6129531018
Zn  Zn12  1  0.38196000  0.40902000  0.67926000  1.0 0.6129531018
Zn  Zn13  1  0.78862000  0.80912000  0.23894000  1.0 0.4785398297
Zn  Zn14  1  0.80912000  0.78862000  0.26106000  1.0 0.4785398297
Zn  Zn15  1  0.21138000  0.19088000  0.76106000  1.0 0.4785398297
Zn  Zn16  1  0.19088000  0.21138000  0.73894000  1.0 0.4785398297
H  H1  1  0.01330000  0.23990000  0.32260000  1.0 0.1083606161
H  H2  1  0.23990000  0.01330000  0.17740000  1.0 0.1083606161
H  H3  1  0.98670000  0.76010000  0.67740000  1.0 0.1083606161
H  H4  1  0.76010000  0.98670000  0.82260000  1.0 0.1083606161
H  H5  1  0.24550000  0.40950000  0.45700000  1.0 0.1024130263
H  H6  1  0.40950000  0.24550000  0.04300000  1.0 0.1024130263
H  H7  1  0.75450000  0.59050000  0.54300000  1.0 0.1024130263
H  H8  1  0.59050000  0.75450000  0.95700000  1.0 0.1024130263
H  H9  1  0.00960000  0.17920000  0.53920000  1.0 0.1024130263
H  H10  1  0.17920000  0.00960000  0.96080000  1.0 0.1024130263
H  H11  1  0.99040000  0.82080000  0.46080000  1.0 0.1024130263
H  H12  1  0.82080000  0.99040000  0.03920000  1.0 0.1024130263
H  H13  1  0.92110000  0.05370000  0.35240000  1.0 0.1083606161
H  H14  1  0.05370000  0.92110000  0.14760000  1.0 0.1083606161
H  H15  1  0.07890000  0.94630000  0.64760000  1.0 0.1083606161
H  H16  1  0.94630000  0.07890000  0.85240000  1.0 0.1083606161
H  H17  1  0.64180000  0.90460000  0.38030000  1.0 0.1202565391
H  H18  1  0.90460000  0.64180000  0.11970000  1.0 0.1202565391
H  H19  1  0.35820000  0.09540000  0.61970000  1.0 0.1202565391
H  H20  1  0.09540000  0.35820000  0.88030000  1.0 0.1202565391
H  H21  1  0.83410000  0.14210000  0.47730000  1.0 0.1202565391
H  H22  1  0.14210000  0.83410000  0.02270000  1.0 0.1202565391
H  H23  1  0.16590000  0.85790000  0.52270000  1.0 0.1202565391
H  H24  1  0.85790000  0.16590000  0.97730000  1.0 0.1202565391
H  H25  1  0.06300000  0.38220000  0.24710000  1.0 0.1083606161
H  H26  1  0.38220000  0.06300000  0.25290000  1.0 0.1083606161
H  H27  1  0.93700000  0.61780000  0.75290000  1.0 0.1083606161
H  H28  1  0.61780000  0.93700000  0.74710000  1.0 0.1083606161
H  H29  1  0.30200000  0.56960000  0.15250000  1.0 0.1083606161
H  H30  1  0.56960000  0.30200000  0.34750000  1.0 0.1083606161
H  H31  1  0.69800000  0.43040000  0.84750000  1.0 0.1083606161
H  H32  1  0.43040000  0.69800000  0.65250000  1.0 0.1083606161
H  H33  1  0.32250000  0.44570000  0.35990000  1.0 0.0935887151
H  H34  1  0.44570000  0.32250000  0.14010000  1.0 0.0935887151
H  H35  1  0.67750000  0.55430000  0.64010000  1.0 0.0935887151
H  H36  1  0.55430000  0.67750000  0.85990000  1.0 0.0935887151
C  C1  1  0.99454000  0.19626000  0.42960000  1.0 0.0679124205
C  C2  1  0.19626000  0.99454000  0.07040000  1.0 0.0679124205
C  C3  1  0.00546000  0.80374000  0.57040000  1.0 0.0679124205
C  C4  1  0.80374000  0.00546000  0.92960000  1.0 0.0679124205
C  C5  1  0.04356000  0.25544000  0.36940000  1.0 -0.1993043315
C  C6  1  0.25544000  0.04356000  0.13060000  1.0 -0.1993043315
C  C7  1  0.95644000  0.74456000  0.63060000  1.0 -0.1993043315
C  C8  1  0.74456000  0.95644000  0.86940000  1.0 -0.1993043315
C  C9  1  0.13635000  0.33665000  0.37830000  1.0 0.0679124205
C  C10  1  0.33665000  0.13635000  0.12170000  1.0 0.0679124205
C  C11  1  0.86365000  0.66335000  0.62170000  1.0 0.0679124205
C  C12  1  0.66335000  0.86365000  0.87830000  1.0 0.0679124205
C  C13  1  0.18280000  0.35620000  0.44980000  1.0 -0.1767790588
C  C14  1  0.35620000  0.18280000  0.05020000  1.0 -0.1719299229
C  C15  1  0.81720000  0.64380000  0.55020000  1.0 -0.1719299229
C  C16  1  0.64380000  0.81720000  0.94980000  1.0 -0.1767790588
C  C17  1  0.13620000  0.29680000  0.50950000  1.0 -0.0013901464
C  C18  1  0.29680000  0.13620000  0.99050000  1.0 -0.0013901464
C  C19  1  0.86380000  0.70320000  0.49050000  1.0 -0.0013901464
C  C20  1  0.70320000  0.86380000  0.00950000  1.0 -0.0013901464
C  C21  1  0.04150000  0.21770000  0.49900000  1.0 -0.20815081
C  C22  1  0.21770000  0.04150000  0.00100000  1.0 -0.20815081
C  C23  1  0.95850000  0.78230000  0.50100000  1.0 -0.20815081
C  C24  1  0.78230000  0.95850000  0.99900000  1.0 -0.20815081
C  C25  1  0.89366000  0.11034000  0.41730000  1.0 0.0586983018
C  C26  1  0.11034000  0.89366000  0.08270000  1.0 0.0586983018
C  C27  1  0.10634000  0.88966000  0.58270000  1.0 0.0586983018
C  C28  1  0.88966000  0.10634000  0.91730000  1.0 0.0586983018
C  C29  1  0.87208000  0.04492000  0.37370000  1.0 -0.1587992631
C  C30  1  0.04492000  0.87208000  0.12630000  1.0 -0.1587992631
C  C31  1  0.12792000  0.95508000  0.62630000  1.0 -0.1587992631
C  C32  1  0.95508000  0.12792000  0.87370000  1.0 -0.1587992631
C  C33  1  0.77813000  0.96567000  0.36110000  1.0 -0.055553852
C  C34  1  0.96567000  0.77813000  0.13890000  1.0 -0.055553852
C  C35  1  0.22187000  0.03433000  0.63890000  1.0 -0.0540673159
C  C36  1  0.03433000  0.22187000  0.86110000  1.0 -0.0540673159
C  C37  1  0.70509000  0.95611000  0.38980000  1.0 -0.1163361206
C  C38  1  0.95611000  0.70509000  0.11020000  1.0 -0.1163361206
C  C39  1  0.29491000  0.04389000  0.61020000  1.0 -0.1163361206
C  C40  1  0.04389000  0.29491000  0.88980000  1.0 -0.1163361206
C  C41  1  0.72452000  0.02208000  0.43260000  1.0 -0.0167257305
C  C42  1  0.02208000  0.72452000  0.06740000  1.0 -0.0167257305
C  C43  1  0.27548000  0.97792000  0.56740000  1.0 -0.0167257305
C  C44  1  0.97792000  0.27548000  0.93260000  1.0 -0.0167257305
C  C45  1  0.82003000  0.09877000  0.44730000  1.0 -0.15043845
C  C46  1  0.09877000  0.82003000  0.05270000  1.0 -0.15043845
C  C47  1  0.17997000  0.90123000  0.55270000  1.0 -0.15043845
C  C48  1  0.90123000  0.17997000  0.94730000  1.0 -0.15043845
C  C49  1  0.18396000  0.40284000  0.31300000  1.0 0.0679124205
C  C50  1  0.40284000  0.18396000  0.18700000  1.0 0.0679124205
C  C51  1  0.81604000  0.59716000  0.68700000  1.0 0.0679124205
C  C52  1  0.59716000  0.81604000  0.81300000  1.0 0.0679124205
C  C53  1  0.13029000  0.41571000  0.24980000  1.0 -0.1402560216
C  C54  1  0.41571000  0.13029000  0.25020000  1.0 -0.1402560216
C  C55  1  0.86971000  0.58429000  0.75020000  1.0 -0.1402560216
C  C56  1  0.58429000  0.86971000  0.74980000  1.0 -0.1402560216
C  C57  1  0.17305000  0.47775000  0.18870000  1.0 -0.0347307016
C  C58  1  0.47775000  0.17305000  0.31130000  1.0 -0.0347307016
C  C59  1  0.82695000  0.52225000  0.81130000  1.0 -0.0347307016
C  C60  1  0.52225000  0.82695000  0.68870000  1.0 -0.0347307016
C  C61  1  0.27250000  0.52710000  0.19270000  1.0 -0.15043845
C  C62  1  0.52710000  0.27250000  0.30730000  1.0 -0.15043845
C  C63  1  0.72750000  0.47290000  0.80730000  1.0 -0.15043845
C  C64  1  0.47290000  0.72750000  0.69270000  1.0 -0.15043845
C  C65  1  0.32820000  0.51360000  0.25610000  1.0 -0.0055295875
C  C66  1  0.51360000  0.32820000  0.24390000  1.0 -0.0055295875
C  C67  1  0.67180000  0.48640000  0.74390000  1.0 -0.0055295875
C  C68  1  0.48640000  0.67180000  0.75610000  1.0 -0.0055295875
C  C69  1  0.28450000  0.45310000  0.31650000  1.0 -0.1993043315
C  C70  1  0.45310000  0.28450000  0.18350000  1.0 -0.1993043315
C  C71  1  0.71550000  0.54690000  0.68350000  1.0 -0.1993043315
C  C72  1  0.54690000  0.71550000  0.81650000  1.0 -0.1993043315
C  C73  1  0.20130000  0.30990000  0.58580000  1.0 0.2893095665
C  C74  1  0.30990000  0.20130000  0.91420000  1.0 0.2893095665
C  C75  1  0.79870000  0.69010000  0.41420000  1.0 0.2893095665
C  C76  1  0.69010000  0.79870000  0.08580000  1.0 0.2893095665
C  C77  1  0.75643000  0.89357000  0.31530000  1.0 0.4503516086
C  C78  1  0.89357000  0.75643000  0.18470000  1.0 0.4503516086
C  C79  1  0.24357000  0.10643000  0.68470000  1.0 0.4503516086
C  C80  1  0.10643000  0.24357000  0.81530000  1.0 0.4503516086
C  C81  1  0.64245000  0.01215000  0.46120000  1.0 0.5820674054
C  C82  1  0.01215000  0.64245000  0.03880000  1.0 0.5820674054
C  C83  1  0.35755000  0.98785000  0.53880000  1.0 0.5820674054
C  C84  1  0.98785000  0.35755000  0.96120000  1.0 0.5820674054
C  C85  1  0.11071000  0.48869000  0.11800000  1.0 0.5934464686
C  C86  1  0.48869000  0.11071000  0.38200000  1.0 0.5934464686
C  C87  1  0.88929000  0.51131000  0.88200000  1.0 0.5934464686
C  C88  1  0.51131000  0.88929000  0.61800000  1.0 0.5934464686
C  C89  1  0.43580000  0.54900000  0.24880000  1.0 0.2696687184
C  C90  1  0.54900000  0.43580000  0.25120000  1.0 0.2696687184
C  C91  1  0.56420000  0.45100000  0.75120000  1.0 0.2696687184
C  C92  1  0.45100000  0.56420000  0.74880000  1.0 0.2696687184
C  C93  1  0.16160000  0.33060000  0.58150000  1.0 0.2617362194
C  C94  1  0.33060000  0.16160000  0.91850000  1.0 0.2617362194
C  C95  1  0.83840000  0.66940000  0.41850000  1.0 0.2617362194
C  C96  1  0.66940000  0.83840000  0.08150000  1.0 0.2617362194
C  C97  1  0.43730000  0.58590000  0.26820000  1.0 0.2696687184
C  C98  1  0.58590000  0.43730000  0.23180000  1.0 0.2696687184
C  C99  1  0.56270000  0.41410000  0.73180000  1.0 0.2696687184
C  C100  1  0.41410000  0.56270000  0.76820000  1.0 0.2696687184
O  O1  1  0.15590000  0.26650000  0.63720000  1.0 -0.1317046829
O  O2  1  0.26650000  0.15590000  0.86280000  1.0 -0.1317046829
O  O3  1  0.84410000  0.73350000  0.36280000  1.0 -0.1317046829
O  O4  1  0.73350000  0.84410000  0.13720000  1.0 -0.1317046829
O  O5  1  0.29490000  0.36910000  0.58930000  1.0 -0.3116915621
O  O6  1  0.36910000  0.29490000  0.91070000  1.0 -0.3116915621
O  O7  1  0.70510000  0.63090000  0.41070000  1.0 -0.3116915621
O  O8  1  0.63090000  0.70510000  0.08930000  1.0 -0.3116915621
O  O9  1  0.66890000  0.83130000  0.29620000  1.0 -0.20815081
O  O10  1  0.83130000  0.66890000  0.20380000  1.0 -0.20815081
O  O11  1  0.33110000  0.16870000  0.70380000  1.0 -0.20815081
O  O12  1  0.16870000  0.33110000  0.79620000  1.0 -0.20815081
O  O13  1  0.82634000  0.90446000  0.29330000  1.0 -0.4679445274
O  O14  1  0.90446000  0.82634000  0.20670000  1.0 -0.4679445274
O  O15  1  0.17366000  0.09554000  0.70670000  1.0 -0.4679445274
O  O16  1  0.09554000  0.17366000  0.79330000  1.0 -0.4679445274
O  O17  1  0.56043000  0.94277000  0.44560000  1.0 -0.5394828863
O  O18  1  0.94277000  0.56043000  0.05440000  1.0 -0.5394828863
O  O19  1  0.43957000  0.05723000  0.55440000  1.0 -0.5394828863
O  O20  1  0.05723000  0.43957000  0.94560000  1.0 -0.5394828863
O  O21  1  0.66419000  0.07501000  0.49780000  1.0 -0.5591317959
O  O22  1  0.07501000  0.66419000  0.00220000  1.0 -0.5591317959
O  O23  1  0.33581000  0.92499000  0.50220000  1.0 -0.5591317959
O  O24  1  0.92499000  0.33581000  0.99780000  1.0 -0.5591317959
O  O25  1  0.02076000  0.44284000  0.11717000  1.0 -0.5591317959
O  O26  1  0.44284000  0.02076000  0.38283000  1.0 -0.5591317959
O  O27  1  0.97924000  0.55716000  0.88283000  1.0 -0.5591317959
O  O28  1  0.55716000  0.97924000  0.61717000  1.0 -0.5591317959
O  O29  1  0.15445000  0.54495000  0.06539000  1.0 -0.5526088126
O  O30  1  0.54495000  0.15445000  0.43461000  1.0 -0.5526088126
O  O31  1  0.84555000  0.45505000  0.93461000  1.0 -0.5526088126
O  O32  1  0.45505000  0.84555000  0.56539000  1.0 -0.5526088126
O  O33  1  0.46680000  0.59420000  0.18850000  1.0 -0.1767790588
O  O34  1  0.59420000  0.46680000  0.31150000  1.0 -0.1767790588
O  O35  1  0.53320000  0.40580000  0.81150000  1.0 -0.1767790588
O  O36  1  0.40580000  0.53320000  0.68850000  1.0 -0.1767790588
O  O37  1  0.48800000  0.56100000  0.31860000  1.0 -0.15043845
O  O38  1  0.56100000  0.48800000  0.18140000  1.0 -0.15043845
O  O39  1  0.51200000  0.43900000  0.68140000  1.0 -0.15043845
O  O40  1  0.43900000  0.51200000  0.81860000  1.0 -0.15043845
O  O41  1  0.68000000  0.68000000  0.25000000  1.0 -0.8180233486
O  O42  1  0.32000000  0.32000000  0.75000000  1.0 -0.8180233486
O  O43  1  0.11900000  0.27100000  0.63570000  1.0 -0.099260867
O  O44  1  0.27100000  0.11900000  0.86430000  1.0 -0.099260867
O  O45  1  0.88100000  0.72900000  0.36430000  1.0 -0.099260867
O  O46  1  0.72900000  0.88100000  0.13570000  1.0 -0.099260867
O  O47  1  0.23890000  0.40990000  0.59040000  1.0 -0.2187845804
O  O48  1  0.40990000  0.23890000  0.90960000  1.0 -0.2187845804
O  O49  1  0.76110000  0.59010000  0.40960000  1.0 -0.2187845804
O  O50  1  0.59010000  0.76110000  0.09040000  1.0 -0.2187845804
O  O51  1  0.68410000  0.80510000  0.33030000  1.0 -0.2187845804
O  O52  1  0.80510000  0.68410000  0.16970000  1.0 -0.2187845804
O  O53  1  0.31590000  0.19490000  0.66970000  1.0 -0.2187845804
O  O54  1  0.19490000  0.31590000  0.83030000  1.0 -0.2187845804
O  O55  1  0.47040000  0.65040000  0.21950000  1.0 -0.1402560216
O  O56  1  0.65040000  0.47040000  0.28050000  1.0 -0.1402560216
O  O57  1  0.52960000  0.34960000  0.78050000  1.0 -0.1402560216
O  O58  1  0.34960000  0.52960000  0.71950000  1.0 -0.1402560216
O  O59  1  0.47680000  0.50860000  0.29670000  1.0 -0.1719299229
O  O60  1  0.50860000  0.47680000  0.20330000  1.0 -0.1719299229
O  O61  1  0.52320000  0.49140000  0.70330000  1.0 -0.1719299229
O  O62  1  0.49140000  0.52320000  0.79670000  1.0 -0.1719299229
