# DDEC6 charges by PACMAN v1.1 (https://github.com/mtap-research/PACMAN-charge/)
data_XOMJOY_ASR_pacman
_symmetry_space_group_name_H-M   'P 1'
_cell_length_a   18.39290000
_cell_length_b   18.39290000
_cell_length_c   24.81600000
_cell_angle_alpha   90.00000000
_cell_angle_beta   90.00000000
_cell_angle_gamma   139.22200000
_symmetry_Int_Tables_number   1
_chemical_formula_structural   GdH32C44N(ClO3)3
_chemical_formula_sum   'Gd4 H128 C176 N4 Cl12 O36'
_cell_volume   5483.17061349
_cell_formula_units_Z   4
loop_
 _symmetry_equiv_pos_site_id
 _symmetry_equiv_pos_as_xyz
  1  'x, y, z'
loop_
 _atom_site_type_symbol
 _atom_site_label
 _atom_site_symmetry_multiplicity
 _atom_site_fract_x
 _atom_site_fract_y
 _atom_site_fract_z
 _atom_site_occupancy
 _atom_site_charge
Gd  Gd1  1  0.53903000  0.76895000  0.21429000  1.0 1.9514477923
Gd  Gd2  1  0.46097000  0.23105000  0.71429000  1.0 1.9514477923
Gd  Gd3  1  0.23105000  0.46097000  0.28571000  1.0 1.9514477923
Gd  Gd4  1  0.76895000  0.53903000  0.78571000  1.0 1.9514477923
H  H1  1  0.81650000  0.92630000  0.23500000  1.0 0.1108340453
H  H2  1  0.18350000  0.07370000  0.73500000  1.0 0.1108340453
H  H3  1  0.07370000  0.18350000  0.26500000  1.0 0.1108340453
H  H4  1  0.92630000  0.81650000  0.76500000  1.0 0.1108340453
H  H5  1  0.95510000  0.95730000  0.19990000  1.0 0.1156595013
H  H6  1  0.04490000  0.04270000  0.69990000  1.0 0.1156595013
H  H7  1  0.04270000  0.04490000  0.30010000  1.0 0.1156595013
H  H8  1  0.95730000  0.95510000  0.80010000  1.0 0.1156595013
H  H9  1  0.91820000  0.85660000  0.12570000  1.0 0.1108340453
H  H10  1  0.08180000  0.14340000  0.62570000  1.0 0.1108340453
H  H11  1  0.14340000  0.08180000  0.37430000  1.0 0.1108340453
H  H12  1  0.85660000  0.91820000  0.87430000  1.0 0.1108340453
H  H13  1  0.74280000  0.72500000  0.08650000  1.0 0.1303518236
H  H14  1  0.25720000  0.27500000  0.58650000  1.0 0.1303518236
H  H15  1  0.27500000  0.25720000  0.41350000  1.0 0.1303518236
H  H16  1  0.72500000  0.74280000  0.91350000  1.0 0.1303518236
H  H17  1  0.60420000  0.69400000  0.12170000  1.0 0.1108340453
H  H18  1  0.39580000  0.30600000  0.62170000  1.0 0.1108340453
H  H19  1  0.30600000  0.39580000  0.37830000  1.0 0.1108340453
H  H20  1  0.69400000  0.60420000  0.87830000  1.0 0.1108340453
H  H21  1  0.47830000  0.93030000  0.09650000  1.0 0.1377322214
H  H22  1  0.52170000  0.06970000  0.59650000  1.0 0.1377322214
H  H23  1  0.06970000  0.52170000  0.40350000  1.0 0.1377322214
H  H24  1  0.93030000  0.47830000  0.90350000  1.0 0.1377322214
H  H25  1  0.73000000  0.93540000  0.06500000  1.0 0.1377322214
H  H26  1  0.27000000  0.06460000  0.56500000  1.0 0.1377322214
H  H27  1  0.06460000  0.27000000  0.43500000  1.0 0.1377322214
H  H28  1  0.93540000  0.73000000  0.93500000  1.0 0.1377322214
H  H29  1  0.86550000  0.08370000  0.92110000  1.0 0.1303518236
H  H30  1  0.13450000  0.91630000  0.42110000  1.0 0.1303518236
H  H31  1  0.91630000  0.13450000  0.57890000  1.0 0.1303518236
H  H32  1  0.08370000  0.86550000  0.07890000  1.0 0.1303518236
H  H33  1  0.75100000  0.09660000  0.91190000  1.0 0.1108340453
H  H34  1  0.24900000  0.90340000  0.41190000  1.0 0.1108340453
H  H35  1  0.90340000  0.24900000  0.58810000  1.0 0.1108340453
H  H36  1  0.09660000  0.75100000  0.08810000  1.0 0.1108340453
H  H37  1  0.43320000  0.01180000  0.09160000  1.0 0.0900054633
H  H38  1  0.56680000  0.98820000  0.59160000  1.0 0.0900054633
H  H39  1  0.98820000  0.56680000  0.40840000  1.0 0.0900054633
H  H40  1  0.01180000  0.43320000  0.90840000  1.0 0.0809368943
H  H41  1  0.33220000  0.90060000  0.06030000  1.0 0.0900054633
H  H42  1  0.66780000  0.09940000  0.56030000  1.0 0.0900054633
H  H43  1  0.09940000  0.66780000  0.43970000  1.0 0.0900054633
H  H44  1  0.90060000  0.33220000  0.93970000  1.0 0.0900054633
H  H45  1  0.30300000  0.00500000  0.06970000  1.0 0.1303518236
H  H46  1  0.69700000  0.99500000  0.56970000  1.0 0.1303518236
H  H47  1  0.99500000  0.69700000  0.43030000  1.0 0.1303518236
H  H48  1  0.00500000  0.30300000  0.93030000  1.0 0.1303518236
H  H49  1  0.31500000  0.99480000  0.00840000  1.0 0.1377322214
H  H50  1  0.68500000  0.00520000  0.50840000  1.0 0.1377322214
H  H51  1  0.00520000  0.68500000  0.49160000  1.0 0.1377322214
H  H52  1  0.99480000  0.31500000  0.99160000  1.0 0.1377322214
H  H53  1  0.41540000  0.10540000  0.03970000  1.0 0.1377322214
H  H54  1  0.58460000  0.89460000  0.53970000  1.0 0.1377322214
H  H55  1  0.89460000  0.58460000  0.46030000  1.0 0.1377322214
H  H56  1  0.10540000  0.41540000  0.96030000  1.0 0.1377322214
H  H57  1  0.68980000  0.32020000  0.90770000  1.0 0.1377322214
H  H58  1  0.31020000  0.67980000  0.40770000  1.0 0.1377322214
H  H59  1  0.67980000  0.31020000  0.59230000  1.0 0.1377322214
H  H60  1  0.32020000  0.68980000  0.09230000  1.0 0.1377322214
H  H61  1  0.51750000  0.07850000  0.75990000  1.0 0.1506405472
H  H62  1  0.48250000  0.92150000  0.25990000  1.0 0.1506405472
H  H63  1  0.92150000  0.48250000  0.74010000  1.0 0.1506405472
H  H64  1  0.07850000  0.51750000  0.24010000  1.0 0.1506405472
H  H65  1  0.43910000  0.81950000  0.81370000  1.0 0.1303518236
H  H66  1  0.56090000  0.18050000  0.31370000  1.0 0.1303518236
H  H67  1  0.18050000  0.56090000  0.68630000  1.0 0.1303518236
H  H68  1  0.81950000  0.43910000  0.18630000  1.0 0.1303518236
H  H69  1  0.52290000  0.90570000  0.89390000  1.0 0.1108340453
H  H70  1  0.47710000  0.09430000  0.39390000  1.0 0.1108340453
H  H71  1  0.09430000  0.47710000  0.60610000  1.0 0.1108340453
H  H72  1  0.90570000  0.52290000  0.10610000  1.0 0.1108340453
H  H73  1  0.62000000  0.27560000  0.99960000  1.0 0.0809368943
H  H74  1  0.38000000  0.72440000  0.49960000  1.0 0.0809368943
H  H75  1  0.72440000  0.38000000  0.50040000  1.0 0.0809368943
H  H76  1  0.27560000  0.62000000  0.00040000  1.0 0.0809368943
H  H77  1  0.75000000  0.38200000  0.00530000  1.0 0.0809368943
H  H78  1  0.25000000  0.61800000  0.50530000  1.0 0.0809368943
H  H79  1  0.61800000  0.25000000  0.49470000  1.0 0.0809368943
H  H80  1  0.38200000  0.75000000  0.99470000  1.0 0.0809368943
H  H81  1  0.66680000  0.32760000  0.09020000  1.0 0.1303518236
H  H82  1  0.33320000  0.67240000  0.59020000  1.0 0.1303518236
H  H83  1  0.67240000  0.33320000  0.40980000  1.0 0.1303518236
H  H84  1  0.32760000  0.66680000  0.90980000  1.0 0.1303518236
H  H85  1  0.74310000  0.31630000  0.08810000  1.0 0.1377322214
H  H86  1  0.25690000  0.68370000  0.58810000  1.0 0.1377322214
H  H87  1  0.68370000  0.25690000  0.41190000  1.0 0.1377322214
H  H88  1  0.31630000  0.74310000  0.91190000  1.0 0.1377322214
H  H89  1  0.61370000  0.21030000  0.08240000  1.0 0.1377322214
H  H90  1  0.38630000  0.78970000  0.58240000  1.0 0.1303518236
H  H91  1  0.78970000  0.38630000  0.41760000  1.0 0.1377322214
H  H92  1  0.21030000  0.61370000  0.91760000  1.0 0.1303518236
H  H93  1  0.43330000  0.59290000  0.09120000  1.0 0.1303518236
H  H94  1  0.56670000  0.40710000  0.59120000  1.0 0.1303518236
H  H95  1  0.40710000  0.56670000  0.40880000  1.0 0.1303518236
H  H96  1  0.59290000  0.43330000  0.90880000  1.0 0.1303518236
H  H97  1  0.26850000  0.28770000  0.19680000  1.0 0.1377322214
H  H98  1  0.73150000  0.71230000  0.69680000  1.0 0.1377322214
H  H99  1  0.71230000  0.73150000  0.30320000  1.0 0.1377322214
H  H100  1  0.28770000  0.26850000  0.80320000  1.0 0.1377322214
H  H101  1  0.23520000  0.09340000  0.09650000  1.0 0.1303518236
H  H102  1  0.76480000  0.90660000  0.59650000  1.0 0.1303518236
H  H103  1  0.90660000  0.76480000  0.40350000  1.0 0.1303518236
H  H104  1  0.09340000  0.23520000  0.90350000  1.0 0.1303518236
H  H105  1  0.30740000  0.21400000  0.02680000  1.0 0.1108340453
H  H106  1  0.69260000  0.78600000  0.52680000  1.0 0.1108340453
H  H107  1  0.78600000  0.69260000  0.47320000  1.0 0.1108340453
H  H108  1  0.21400000  0.30740000  0.97320000  1.0 0.1108340453
H  H109  1  0.55790000  0.72050000  0.02210000  1.0 0.0966130196
H  H110  1  0.44210000  0.27950000  0.52210000  1.0 0.0966130196
H  H111  1  0.27950000  0.44210000  0.47790000  1.0 0.0966130196
H  H112  1  0.72050000  0.55790000  0.97790000  1.0 0.0966130196
H  H113  1  0.43530000  0.65190000  0.00940000  1.0 0.0900054633
H  H114  1  0.56470000  0.34810000  0.50940000  1.0 0.0900054633
H  H115  1  0.34810000  0.56470000  0.49060000  1.0 0.0900054633
H  H116  1  0.65190000  0.43530000  0.99060000  1.0 0.0900054633
H  H117  1  0.55430000  0.79090000  0.94830000  1.0 0.1303518236
H  H118  1  0.44570000  0.20910000  0.44830000  1.0 0.1303518236
H  H119  1  0.20910000  0.44570000  0.55170000  1.0 0.1303518236
H  H120  1  0.79090000  0.55430000  0.05170000  1.0 0.1303518236
H  H121  1  0.47290000  0.67530000  0.91940000  1.0 0.1377322214
H  H122  1  0.52710000  0.32470000  0.41940000  1.0 0.1377322214
H  H123  1  0.32470000  0.52710000  0.58060000  1.0 0.1377322214
H  H124  1  0.67530000  0.47290000  0.08060000  1.0 0.1377322214
H  H125  1  0.59530000  0.74410000  0.93220000  1.0 0.1303518236
H  H126  1  0.40470000  0.25590000  0.43220000  1.0 0.1303518236
H  H127  1  0.25590000  0.40470000  0.56780000  1.0 0.1303518236
H  H128  1  0.74410000  0.59530000  0.06780000  1.0 0.1303518236
C  C1  1  0.80170000  0.88590000  0.20530000  1.0 0.0809368943
C  C2  1  0.19830000  0.11410000  0.70530000  1.0 0.0809368943
C  C3  1  0.11410000  0.19830000  0.29470000  1.0 0.0809368943
C  C4  1  0.88590000  0.80170000  0.79470000  1.0 0.0809368943
C  C5  1  0.88470000  0.90450000  0.18420000  1.0 -0.1456886158
C  C6  1  0.11530000  0.09550000  0.68420000  1.0 -0.1456886158
C  C7  1  0.09550000  0.11530000  0.31580000  1.0 -0.1456886158
C  C8  1  0.90450000  0.88470000  0.81580000  1.0 -0.1456886158
C  C9  1  0.86270000  0.84430000  0.13970000  1.0 -0.0312066032
C  C10  1  0.13730000  0.15570000  0.63970000  1.0 -0.0312066032
C  C11  1  0.15570000  0.13730000  0.36030000  1.0 -0.0312066032
C  C12  1  0.84430000  0.86270000  0.86030000  1.0 -0.0312066032
C  C13  1  0.75760000  0.76540000  0.11630000  1.0 -0.1407560272
C  C14  1  0.24240000  0.23460000  0.61630000  1.0 -0.1407560272
C  C15  1  0.23460000  0.24240000  0.38370000  1.0 -0.1407560272
C  C16  1  0.76540000  0.75760000  0.88370000  1.0 -0.1407560272
C  C17  1  0.67460000  0.74680000  0.13740000  1.0 0.0900054633
C  C18  1  0.32540000  0.25320000  0.63740000  1.0 0.0900054633
C  C19  1  0.25320000  0.32540000  0.36260000  1.0 0.0900054633
C  C20  1  0.74680000  0.67460000  0.86260000  1.0 0.0900054633
C  C21  1  0.60113000  0.03607000  0.97970000  1.0 -0.0656899289
C  C22  1  0.39887000  0.96393000  0.47970000  1.0 -0.0656899289
C  C23  1  0.96393000  0.39887000  0.52030000  1.0 -0.0656899289
C  C24  1  0.03607000  0.60113000  0.02030000  1.0 -0.0656899289
C  C25  1  0.52986000  0.99914000  0.02140000  1.0 0.2003881347
C  C26  1  0.47014000  0.00086000  0.52140000  1.0 0.2003881347
C  C27  1  0.00086000  0.47014000  0.47860000  1.0 0.2003881347
C  C28  1  0.99914000  0.52986000  0.97860000  1.0 0.2003881347
C  C29  1  0.52465000  0.95195000  0.06820000  1.0 -0.2423261628
C  C30  1  0.47535000  0.04805000  0.56820000  1.0 -0.2423261628
C  C31  1  0.04805000  0.47535000  0.43180000  1.0 -0.2423261628
C  C32  1  0.95195000  0.52465000  0.93180000  1.0 -0.2423261628
C  C33  1  0.58835000  0.93785000  0.07210000  1.0 -0.0244756658
C  C34  1  0.41165000  0.06215000  0.57210000  1.0 -0.0244756658
C  C35  1  0.06215000  0.41165000  0.42790000  1.0 -0.0244756658
C  C36  1  0.93785000  0.58835000  0.92790000  1.0 -0.0244756658
C  C37  1  0.66215000  0.97425000  0.03060000  1.0 0.0487181283
C  C38  1  0.33785000  0.02575000  0.53060000  1.0 0.0487181283
C  C39  1  0.02575000  0.33785000  0.46940000  1.0 0.0487181283
C  C40  1  0.97425000  0.66215000  0.96940000  1.0 0.0487181283
C  C41  1  0.73331000  0.96749000  0.03470000  1.0 -0.2004782558
C  C42  1  0.26669000  0.03251000  0.53470000  1.0 -0.2004782558
C  C43  1  0.03251000  0.26669000  0.46530000  1.0 -0.2004782558
C  C44  1  0.96749000  0.73331000  0.96530000  1.0 -0.2004782558
C  C45  1  0.80753000  0.00807000  0.99410000  1.0 0.1377322214
C  C46  1  0.19247000  0.99193000  0.49410000  1.0 0.1377322214
C  C47  1  0.99193000  0.19247000  0.50590000  1.0 0.1377322214
C  C48  1  0.00807000  0.80753000  0.00590000  1.0 0.1377322214
C  C49  1  0.81469000  0.05671000  0.94810000  1.0 -0.169804914
C  C50  1  0.18531000  0.94329000  0.44810000  1.0 -0.169804914
C  C51  1  0.94329000  0.18531000  0.55190000  1.0 -0.169804914
C  C52  1  0.05671000  0.81469000  0.05190000  1.0 -0.169804914
C  C53  1  0.74647000  0.06473000  0.94280000  1.0 -0.1316492956
C  C54  1  0.25353000  0.93527000  0.44280000  1.0 -0.1316492956
C  C55  1  0.93527000  0.25353000  0.55720000  1.0 -0.1316492956
C  C56  1  0.06473000  0.74647000  0.05720000  1.0 -0.1316492956
C  C57  1  0.66905000  0.02475000  0.98390000  1.0 0.027650545
C  C58  1  0.33095000  0.97525000  0.48390000  1.0 0.027650545
C  C59  1  0.97525000  0.33095000  0.51610000  1.0 0.027650545
C  C60  1  0.02475000  0.66905000  0.01610000  1.0 0.027650545
C  C61  1  0.57530000  0.88210000  0.12220000  1.0 0.5638656392
C  C62  1  0.42470000  0.11790000  0.62220000  1.0 0.5638656392
C  C63  1  0.11790000  0.42470000  0.37780000  1.0 0.5638656392
C  C64  1  0.88210000  0.57530000  0.87780000  1.0 0.5638656392
C  C65  1  0.39440000  0.98120000  0.05740000  1.0 0.027650545
C  C66  1  0.60560000  0.01880000  0.55740000  1.0 0.027650545
C  C67  1  0.01880000  0.60560000  0.44260000  1.0 0.027650545
C  C68  1  0.98120000  0.39440000  0.94260000  1.0 0.027650545
C  C69  1  0.35310000  0.02570000  0.04240000  1.0 -0.4043126629
C  C70  1  0.64690000  0.97430000  0.54240000  1.0 -0.4043126629
C  C71  1  0.97430000  0.64690000  0.45760000  1.0 -0.4097091581
C  C72  1  0.02570000  0.35310000  0.95760000  1.0 -0.4043126629
C  C73  1  0.60934000  0.09346000  0.93280000  1.0 -0.0595155434
C  C74  1  0.39066000  0.90654000  0.43280000  1.0 -0.0595155434
C  C75  1  0.90654000  0.39066000  0.56720000  1.0 -0.0595155434
C  C76  1  0.09346000  0.60934000  0.06720000  1.0 -0.0595155434
C  C77  1  0.65655000  0.19705000  0.94160000  1.0 0.2003881347
C  C78  1  0.34345000  0.80295000  0.44160000  1.0 0.2003881347
C  C79  1  0.80295000  0.34345000  0.55840000  1.0 0.2003881347
C  C80  1  0.19705000  0.65655000  0.05840000  1.0 0.2003881347
C  C81  1  0.65692000  0.25048000  0.90090000  1.0 -0.2311168947
C  C82  1  0.34308000  0.74952000  0.40090000  1.0 -0.2311168947
C  C83  1  0.74952000  0.34308000  0.59910000  1.0 -0.2311168947
C  C84  1  0.25048000  0.65692000  0.09910000  1.0 -0.2311168947
C  C85  1  0.61041000  0.20279000  0.85210000  1.0 -0.0443928913
C  C86  1  0.38959000  0.79721000  0.35210000  1.0 -0.0443928913
C  C87  1  0.79721000  0.38959000  0.64790000  1.0 -0.0443928913
C  C88  1  0.20279000  0.61041000  0.14790000  1.0 -0.0443928913
C  C89  1  0.56380000  0.09800000  0.83970000  1.0 0.0705291116
C  C90  1  0.43620000  0.90200000  0.33970000  1.0 0.0705291116
C  C91  1  0.90200000  0.43620000  0.66030000  1.0 0.0705291116
C  C92  1  0.09800000  0.56380000  0.16030000  1.0 0.0705291116
C  C93  1  0.51761000  0.04459000  0.78760000  1.0 -0.2004782558
C  C94  1  0.48239000  0.95541000  0.28760000  1.0 -0.2004782558
C  C95  1  0.95541000  0.48239000  0.71240000  1.0 -0.2004782558
C  C96  1  0.04459000  0.51761000  0.21240000  1.0 -0.2004782558
C  C97  1  0.47440000  0.94440000  0.77950000  1.0 0.1506405472
C  C98  1  0.52560000  0.05560000  0.27950000  1.0 0.1506405472
C  C99  1  0.05560000  0.52560000  0.72050000  1.0 0.1506405472
C  C100  1  0.94440000  0.47440000  0.22050000  1.0 0.1506405472
C  C101  1  0.47240000  0.88960000  0.82000000  1.0 -0.1625680105
C  C102  1  0.52760000  0.11040000  0.32000000  1.0 -0.1625680105
C  C103  1  0.11040000  0.52760000  0.68000000  1.0 -0.1625680105
C  C104  1  0.88960000  0.47240000  0.18000000  1.0 -0.1625680105
C  C105  1  0.51960000  0.94000000  0.86830000  1.0 -0.1407560272
C  C106  1  0.48040000  0.06000000  0.36830000  1.0 -0.1407560272
C  C107  1  0.06000000  0.48040000  0.63170000  1.0 -0.1407560272
C  C108  1  0.94000000  0.51960000  0.13170000  1.0 -0.1407560272
C  C109  1  0.56496000  0.04444000  0.88160000  1.0 0.027650545
C  C110  1  0.43504000  0.95556000  0.38160000  1.0 0.027650545
C  C111  1  0.95556000  0.43504000  0.61840000  1.0 0.027650545
C  C112  1  0.04444000  0.56496000  0.11840000  1.0 0.027650545
C  C113  1  0.60558000  0.26182000  0.81250000  1.0 0.6552729382
C  C114  1  0.39442000  0.73818000  0.31250000  1.0 0.6552729382
C  C115  1  0.73818000  0.39442000  0.68750000  1.0 0.6552729382
C  C116  1  0.26182000  0.60558000  0.18750000  1.0 0.6552729382
C  C117  1  0.68660000  0.30360000  0.01420000  1.0 0.0216032853
C  C118  1  0.31340000  0.69640000  0.51420000  1.0 0.0216032853
C  C119  1  0.69640000  0.31340000  0.48580000  1.0 0.0216032853
C  C120  1  0.30360000  0.68660000  0.98580000  1.0 0.0216032853
C  C121  1  0.67660000  0.28800000  0.07410000  1.0 -0.4097091581
C  C122  1  0.32340000  0.71200000  0.57410000  1.0 -0.4097091581
C  C123  1  0.71200000  0.32340000  0.42590000  1.0 -0.4097091581
C  C124  1  0.28800000  0.67660000  0.92590000  1.0 -0.4097091581
C  C125  1  0.38810000  0.40830000  0.02670000  1.0 -0.0656899289
C  C126  1  0.61190000  0.59170000  0.52670000  1.0 -0.0656899289
C  C127  1  0.59170000  0.61190000  0.47330000  1.0 -0.0656899289
C  C128  1  0.40830000  0.38810000  0.97330000  1.0 -0.0656899289
C  C129  1  0.42130000  0.50350000  0.03510000  1.0 0.2003881347
C  C130  1  0.57870000  0.49650000  0.53510000  1.0 0.2003881347
C  C131  1  0.49650000  0.57870000  0.46490000  1.0 0.2003881347
C  C132  1  0.50350000  0.42130000  0.96490000  1.0 0.2003881347
C  C133  1  0.40990000  0.52750000  0.08600000  1.0 -0.2541656644
C  C134  1  0.59010000  0.47250000  0.58600000  1.0 -0.2541656644
C  C135  1  0.47250000  0.59010000  0.41400000  1.0 -0.2541656644
C  C136  1  0.52750000  0.40990000  0.91400000  1.0 -0.2541656644
C  C137  1  0.36401000  0.45459000  0.12830000  1.0 -0.0460774546
C  C138  1  0.63599000  0.54541000  0.62830000  1.0 -0.0460774546
C  C139  1  0.54541000  0.63599000  0.37170000  1.0 -0.0460774546
C  C140  1  0.45459000  0.36401000  0.87170000  1.0 -0.0460774546
C  C141  1  0.32450000  0.35330000  0.12060000  1.0 0.0705291116
C  C142  1  0.67550000  0.64670000  0.62060000  1.0 0.0705291116
C  C143  1  0.64670000  0.67550000  0.37940000  1.0 0.0705291116
C  C144  1  0.35330000  0.32450000  0.87940000  1.0 0.0705291116
C  C145  1  0.27680000  0.27500000  0.16230000  1.0 -0.2004782558
C  C146  1  0.72320000  0.72500000  0.66230000  1.0 -0.2004782558
C  C147  1  0.72500000  0.72320000  0.33770000  1.0 -0.2004782558
C  C148  1  0.27500000  0.27680000  0.83770000  1.0 -0.2004782558
C  C149  1  0.24360000  0.18180000  0.15120000  1.0 0.1303518236
C  C150  1  0.75640000  0.81820000  0.65120000  1.0 0.1303518236
C  C151  1  0.81820000  0.75640000  0.34880000  1.0 0.1303518236
C  C152  1  0.18180000  0.24360000  0.84880000  1.0 0.1303518236
C  C153  1  0.25670000  0.15770000  0.10150000  1.0 -0.169804914
C  C154  1  0.74330000  0.84230000  0.60150000  1.0 -0.169804914
C  C155  1  0.84230000  0.74330000  0.39850000  1.0 -0.169804914
C  C156  1  0.15770000  0.25670000  0.89850000  1.0 -0.169804914
C  C157  1  0.30160000  0.23080000  0.06070000  1.0 -0.1316492956
C  C158  1  0.69840000  0.76920000  0.56070000  1.0 -0.1316492956
C  C159  1  0.76920000  0.69840000  0.43930000  1.0 -0.1316492956
C  C160  1  0.23080000  0.30160000  0.93930000  1.0 -0.1316492956
C  C161  1  0.34060000  0.33340000  0.06820000  1.0 0.0430612973
C  C162  1  0.65940000  0.66666667  0.56820000  1.0 0.0430612973
C  C163  1  0.66666667  0.65940000  0.43180000  1.0 0.0430612973
C  C164  1  0.33340000  0.34060000  0.93180000  1.0 0.0430612973
C  C165  1  0.35910000  0.49090000  0.18110000  1.0 0.6504040732
C  C166  1  0.64090000  0.50910000  0.68110000  1.0 0.6504040732
C  C167  1  0.50910000  0.64090000  0.31890000  1.0 0.6504040732
C  C168  1  0.49090000  0.35910000  0.81890000  1.0 0.6504040732
C  C169  1  0.49750000  0.67050000  0.99630000  1.0 0.0216032853
C  C170  1  0.50250000  0.32950000  0.49630000  1.0 0.0216032853
C  C171  1  0.32950000  0.50250000  0.50370000  1.0 0.0216032853
C  C172  1  0.67050000  0.49750000  0.00370000  1.0 0.0216032853
C  C173  1  0.53290000  0.72470000  0.94480000  1.0 -0.415512316
C  C174  1  0.46710000  0.27530000  0.44480000  1.0 -0.415512316
C  C175  1  0.27530000  0.46710000  0.55520000  1.0 -0.415512316
C  C176  1  0.72470000  0.53290000  0.05520000  1.0 -0.415512316
N  N1  1  0.69668000  0.80712000  0.18180000  1.0 -0.4097091581
N  N2  1  0.30332000  0.19288000  0.68180000  1.0 -0.4097091581
N  N3  1  0.19288000  0.30332000  0.31820000  1.0 -0.4097091581
N  N4  1  0.80712000  0.69668000  0.81820000  1.0 -0.4097091581
Cl  Cl1  1  0.89961000  0.00419000  0.99978000  1.0 -0.1407560272
Cl  Cl2  1  0.10039000  0.99581000  0.49978000  1.0 -0.1407560272
Cl  Cl3  1  0.99581000  0.10039000  0.50022000  1.0 -0.1407560272
Cl  Cl4  1  0.00419000  0.89961000  0.00022000  1.0 -0.1407560272
Cl  Cl5  1  0.41670000  0.88026000  0.71607000  1.0 -0.1316492956
Cl  Cl6  1  0.58330000  0.11974000  0.21607000  1.0 -0.1316492956
Cl  Cl7  1  0.11974000  0.58330000  0.78393000  1.0 -0.1316492956
Cl  Cl8  1  0.88026000  0.41670000  0.28393000  1.0 -0.1316492956
Cl  Cl9  1  0.18597000  0.08443000  0.20350000  1.0 -0.119037036
Cl  Cl10  1  0.81403000  0.91557000  0.70350000  1.0 -0.119037036
Cl  Cl11  1  0.91557000  0.81403000  0.29650000  1.0 -0.119037036
Cl  Cl12  1  0.08443000  0.18597000  0.79650000  1.0 -0.119037036
O  O1  1  0.56143000  0.80497000  0.11758000  1.0 -0.6143193469
O  O2  1  0.43857000  0.19503000  0.61758000  1.0 -0.6143193469
O  O3  1  0.19503000  0.43857000  0.38242000  1.0 -0.6143193469
O  O4  1  0.80497000  0.56143000  0.88242000  1.0 -0.6143193469
O  O5  1  0.58009000  0.91631000  0.16739000  1.0 -0.5943658725
O  O6  1  0.41991000  0.08369000  0.66739000  1.0 -0.5943658725
O  O7  1  0.08369000  0.41991000  0.33261000  1.0 -0.5943658725
O  O8  1  0.91631000  0.58009000  0.83261000  1.0 -0.5943658725
O  O9  1  0.46833000  0.01467000  0.01510000  1.0 -0.1803079323
O  O10  1  0.53167000  0.98533000  0.51510000  1.0 -0.1803079323
O  O11  1  0.98533000  0.53167000  0.48490000  1.0 -0.1803079323
O  O12  1  0.01467000  0.46833000  0.98490000  1.0 -0.1803079323
O  O13  1  0.68653000  0.36547000  0.81250000  1.0 -0.6332694665
O  O14  1  0.31347000  0.63453000  0.31250000  1.0 -0.6332694665
O  O15  1  0.63453000  0.31347000  0.68750000  1.0 -0.6332694665
O  O16  1  0.36547000  0.68653000  0.18750000  1.0 -0.6332694665
O  O17  1  0.51737000  0.20183000  0.78510000  1.0 -0.6614842639
O  O18  1  0.48263000  0.79817000  0.28510000  1.0 -0.6614842639
O  O19  1  0.79817000  0.48263000  0.71490000  1.0 -0.6614842639
O  O20  1  0.20183000  0.51737000  0.21490000  1.0 -0.6614842639
O  O21  1  0.70087000  0.24273000  0.99197000  1.0 -0.1900982783
O  O22  1  0.29913000  0.75727000  0.49197000  1.0 -0.1900982783
O  O23  1  0.75727000  0.29913000  0.50803000  1.0 -0.1900982783
O  O24  1  0.24273000  0.70087000  0.00803000  1.0 -0.1900982783
O  O25  1  0.43696000  0.59344000  0.19010000  1.0 -0.6738920436
O  O26  1  0.56304000  0.40656000  0.69010000  1.0 -0.6738920436
O  O27  1  0.40656000  0.56304000  0.30990000  1.0 -0.6738920436
O  O28  1  0.59344000  0.43696000  0.80990000  1.0 -0.6738920436
O  O29  1  0.27862000  0.41938000  0.21180000  1.0 -0.6185757146
O  O30  1  0.72138000  0.58062000  0.71180000  1.0 -0.6185757146
O  O31  1  0.58062000  0.72138000  0.28820000  1.0 -0.6185757146
O  O32  1  0.41938000  0.27862000  0.78820000  1.0 -0.6185757146
O  O33  1  0.46588000  0.57412000  0.99180000  1.0 -0.1803079323
O  O34  1  0.53412000  0.42588000  0.49180000  1.0 -0.1803079323
O  O35  1  0.42588000  0.53412000  0.50820000  1.0 -0.1803079323
O  O36  1  0.57412000  0.46588000  0.00820000  1.0 -0.1803079323
