# DDEC6 charges by PACMAN v1.1 (https://github.com/mtap-research/PACMAN-charge/)
data_XONGUD_ASR_pacman
_symmetry_space_group_name_H-M   'P 1'
_cell_length_a   22.45610000
_cell_length_b   22.45610000
_cell_length_c   29.83400000
_cell_angle_alpha   58.84960000
_cell_angle_beta   121.15000000
_cell_angle_gamma   137.82800000
_symmetry_Int_Tables_number   1
_chemical_formula_structural   K2NaCr3CoH18W12C12O49
_chemical_formula_sum   'K8 Na4 Cr12 Co4 H72 W48 C48 O196'
_cell_volume   8405.94793169
_cell_formula_units_Z   4
loop_
 _symmetry_equiv_pos_site_id
 _symmetry_equiv_pos_as_xyz
  1  'x, y, z'
loop_
 _atom_site_type_symbol
 _atom_site_label
 _atom_site_symmetry_multiplicity
 _atom_site_fract_x
 _atom_site_fract_y
 _atom_site_fract_z
 _atom_site_occupancy
 _atom_site_charge
K  K1  1  0.42520000  0.50640000  0.83460000  1.0 0.900970953
K  K2  1  0.50640000  0.42520000  0.66540000  1.0 0.900970953
K  K3  1  0.57480000  0.49360000  0.16540000  1.0 0.900970953
K  K4  1  0.49360000  0.57480000  0.33460000  1.0 0.900970953
K  K5  1  0.25260000  0.85160000  0.87950000  1.0 0.8927519255
K  K6  1  0.85160000  0.25260000  0.62050000  1.0 0.8927519255
K  K7  1  0.74740000  0.14840000  0.12050000  1.0 0.8927519255
K  K8  1  0.14840000  0.74740000  0.37950000  1.0 0.8927519255
Na  Na1  1  0.11260000  0.23540000  0.00110000  1.0 0.8830001129
Na  Na2  1  0.23540000  0.11260000  0.49890000  1.0 0.8830001129
Na  Na3  1  0.88740000  0.76460000  0.99890000  1.0 0.8927519255
Na  Na4  1  0.76460000  0.88740000  0.50110000  1.0 0.8830001129
Cr  Cr1  1  0.20611000  0.46053000  0.77890000  1.0 1.5033333474
Cr  Cr2  1  0.46053000  0.20611000  0.72110000  1.0 1.5033333474
Cr  Cr3  1  0.79389000  0.53947000  0.22110000  1.0 1.5033333474
Cr  Cr4  1  0.53947000  0.79389000  0.27890000  1.0 1.5033333474
Cr  Cr5  1  0.02100000  0.26460000  0.74770000  1.0 1.4921150678
Cr  Cr6  1  0.26460000  0.02100000  0.75230000  1.0 1.4921150678
Cr  Cr7  1  0.97900000  0.73540000  0.25230000  1.0 1.4921150678
Cr  Cr8  1  0.73540000  0.97900000  0.24770000  1.0 1.4921150678
Cr  Cr9  1  0.04988000  0.31252000  0.84780000  1.0 1.4419020885
Cr  Cr10  1  0.31252000  0.04988000  0.65220000  1.0 1.4419020885
Cr  Cr11  1  0.95012000  0.68748000  0.15220000  1.0 1.4419020885
Cr  Cr12  1  0.68748000  0.95012000  0.34780000  1.0 1.4419020885
Co  Co1  1  0.60538000  0.85222000  0.96410000  1.0 1.0109634572
Co  Co2  1  0.85222000  0.60538000  0.53590000  1.0 1.0109634572
Co  Co3  1  0.39462000  0.14778000  0.03590000  1.0 1.0109634572
Co  Co4  1  0.14778000  0.39462000  0.46410000  1.0 1.0109634572
H  H1  1  0.21770000  0.27450000  0.74400000  1.0 0.1680390076
H  H2  1  0.27450000  0.21770000  0.75600000  1.0 0.1680390076
H  H3  1  0.78230000  0.72550000  0.25600000  1.0 0.1680390076
H  H4  1  0.72550000  0.78230000  0.24400000  1.0 0.1680390076
H  H5  1  0.29980000  0.33080000  0.78770000  1.0 0.1388594342
H  H6  1  0.33080000  0.29980000  0.71230000  1.0 0.1388594342
H  H7  1  0.70020000  0.66920000  0.21230000  1.0 0.1347312205
H  H8  1  0.66920000  0.70020000  0.28770000  1.0 0.1347312205
H  H9  1  0.29170000  0.38070000  0.72650000  1.0 0.1388594342
H  H10  1  0.38070000  0.29170000  0.77350000  1.0 0.1388594342
H  H11  1  0.70830000  0.61930000  0.27350000  1.0 0.1388594342
H  H12  1  0.61930000  0.70830000  0.22650000  1.0 0.1388594342
H  H13  1  0.76710000  0.19630000  0.76700000  1.0 0.1483030886
H  H14  1  0.19630000  0.76710000  0.73300000  1.0 0.1483030886
H  H15  1  0.23290000  0.80370000  0.23300000  1.0 0.1483030886
H  H16  1  0.80370000  0.23290000  0.26700000  1.0 0.1483030886
H  H17  1  0.74070000  0.13710000  0.73670000  1.0 0.1388594342
H  H18  1  0.13710000  0.74070000  0.76330000  1.0 0.1388594342
H  H19  1  0.25930000  0.86290000  0.26330000  1.0 0.1388594342
H  H20  1  0.86290000  0.25930000  0.23670000  1.0 0.1388594342
H  H21  1  0.78120000  0.23840000  0.70850000  1.0 0.1388594342
H  H22  1  0.23840000  0.78120000  0.79150000  1.0 0.1388594342
H  H23  1  0.21880000  0.76160000  0.29150000  1.0 0.1388594342
H  H24  1  0.76160000  0.21880000  0.20850000  1.0 0.1388594342
H  H25  1  0.08220000  0.55480000  0.80050000  1.0 0.1483030886
H  H26  1  0.55480000  0.08220000  0.69950000  1.0 0.1483030886
H  H27  1  0.91780000  0.44520000  0.19950000  1.0 0.1483030886
H  H28  1  0.44520000  0.91780000  0.30050000  1.0 0.1483030886
H  H29  1  0.11130000  0.59590000  0.74740000  1.0 0.1388594342
H  H30  1  0.59590000  0.11130000  0.75260000  1.0 0.1388594342
H  H31  1  0.88870000  0.40410000  0.25260000  1.0 0.1388594342
H  H32  1  0.40410000  0.88870000  0.24740000  1.0 0.1388594342
H  H33  1  0.18590000  0.62950000  0.79980000  1.0 0.1388594342
H  H34  1  0.62950000  0.18590000  0.70020000  1.0 0.1388594342
H  H35  1  0.81410000  0.37050000  0.20020000  1.0 0.1388594342
H  H36  1  0.37050000  0.81410000  0.29980000  1.0 0.1388594342
H  H37  1  0.98790000  0.03650000  0.87410000  1.0 0.1579977272
H  H38  1  0.03650000  0.98790000  0.62590000  1.0 0.1579977272
H  H39  1  0.01210000  0.96350000  0.12590000  1.0 0.1579977272
H  H40  1  0.96350000  0.01210000  0.37410000  1.0 0.1579977272
H  H41  1  0.05240000  0.08000000  0.92420000  1.0 0.1388594342
H  H42  1  0.08000000  0.05240000  0.57580000  1.0 0.1388594342
H  H43  1  0.94760000  0.92000000  0.07580000  1.0 0.1388594342
H  H44  1  0.92000000  0.94760000  0.42420000  1.0 0.1388594342
H  H45  1  0.94710000  0.02210000  0.91170000  1.0 0.1579977272
H  H46  1  0.02210000  0.94710000  0.58830000  1.0 0.1579977272
H  H47  1  0.05290000  0.97790000  0.08830000  1.0 0.1579977272
H  H48  1  0.97790000  0.05290000  0.41170000  1.0 0.1579977272
H  H49  1  0.13420000  0.55580000  0.60560000  1.0 0.1680390076
H  H50  1  0.55580000  0.13420000  0.89440000  1.0 0.1680390076
H  H51  1  0.86580000  0.44420000  0.39440000  1.0 0.1680390076
H  H52  1  0.44420000  0.86580000  0.10560000  1.0 0.1680390076
H  H53  1  0.02790000  0.47830000  0.59450000  1.0 0.1483030886
H  H54  1  0.47830000  0.02790000  0.90550000  1.0 0.1483030886
H  H55  1  0.97210000  0.52170000  0.40550000  1.0 0.1483030886
H  H56  1  0.52170000  0.97210000  0.09450000  1.0 0.1483030886
H  H57  1  0.08800000  0.47240000  0.58760000  1.0 0.1483030886
H  H58  1  0.47240000  0.08800000  0.91240000  1.0 0.1483030886
H  H59  1  0.91200000  0.52760000  0.41240000  1.0 0.1483030886
H  H60  1  0.52760000  0.91200000  0.08760000  1.0 0.1483030886
H  H61  1  0.29630000  0.39030000  0.98140000  1.0 0.1483030886
H  H62  1  0.39030000  0.29630000  0.51860000  1.0 0.1483030886
H  H63  1  0.70370000  0.60970000  0.01860000  1.0 0.1483030886
H  H64  1  0.60970000  0.70370000  0.48140000  1.0 0.1483030886
H  H65  1  0.36930000  0.48830000  0.95160000  1.0 0.1579977272
H  H66  1  0.48830000  0.36930000  0.54840000  1.0 0.1579977272
H  H67  1  0.63070000  0.51170000  0.04840000  1.0 0.1579977272
H  H68  1  0.51170000  0.63070000  0.45160000  1.0 0.1579977272
H  H69  1  0.35110000  0.40450000  0.95410000  1.0 0.1680390076
H  H70  1  0.40450000  0.35110000  0.54590000  1.0 0.1680390076
H  H71  1  0.64890000  0.59550000  0.04590000  1.0 0.1680390076
H  H72  1  0.59550000  0.64890000  0.45410000  1.0 0.1680390076
W  W1  1  0.54748000  0.70220000  0.91198000  1.0 2.4096510041
W  W2  1  0.70220000  0.54748000  0.58802000  1.0 2.4096510041
W  W3  1  0.45252000  0.29780000  0.08802000  1.0 2.4096510041
W  W4  1  0.29780000  0.45252000  0.41198000  1.0 2.4096510041
W  W5  1  0.50772000  0.62964000  0.04360000  1.0 2.4011333956
W  W6  1  0.62964000  0.50772000  0.45640000  1.0 2.4011333956
W  W7  1  0.49228000  0.37036000  0.95640000  1.0 2.4011333956
W  W8  1  0.37036000  0.49228000  0.54360000  1.0 2.4011333956
W  W9  1  0.57077000  0.77687000  0.09172000  1.0 2.4096510041
W  W10  1  0.77687000  0.57077000  0.40828000  1.0 2.4011333956
W  W11  1  0.42923000  0.22313000  0.90828000  1.0 2.4096510041
W  W12  1  0.22313000  0.42923000  0.59172000  1.0 2.4011333956
W  W13  1  0.71390000  0.08122000  0.89453000  1.0 2.4186332001
W  W14  1  0.08122000  0.71390000  0.60547000  1.0 2.4096510041
W  W15  1  0.28610000  0.91878000  0.10547000  1.0 2.4186332001
W  W16  1  0.91878000  0.28610000  0.39453000  1.0 2.4186332001
W  W17  1  0.76509000  0.86687000  0.95362000  1.0 2.3763928586
W  W18  1  0.86687000  0.76509000  0.54638000  1.0 2.3763928586
W  W19  1  0.23491000  0.13313000  0.04638000  1.0 2.3763928586
W  W20  1  0.13313000  0.23491000  0.45362000  1.0 2.3763928586
W  W21  1  0.43462000  0.82922000  0.96546000  1.0 2.392490881
W  W22  1  0.82922000  0.43462000  0.53454000  1.0 2.392490881
W  W23  1  0.56538000  0.17078000  0.03454000  1.0 2.392490881
W  W24  1  0.17078000  0.56538000  0.46546000  1.0 2.392490881
W  W25  1  0.72538000  0.79382000  0.08587000  1.0 2.2560801678
W  W26  1  0.79382000  0.72538000  0.41413000  1.0 2.2560801678
W  W27  1  0.27462000  0.20618000  0.91413000  1.0 2.2560801678
W  W28  1  0.20618000  0.27462000  0.58587000  1.0 2.2522819215
W  W29  1  0.37004000  0.68054000  0.91762000  1.0 2.4096510041
W  W30  1  0.68054000  0.37004000  0.58238000  1.0 2.4096510041
W  W31  1  0.62996000  0.31946000  0.08238000  1.0 2.4096510041
W  W32  1  0.31946000  0.62996000  0.41762000  1.0 2.4096510041
W  W33  1  0.83495000  0.03333000  0.00606000  1.0 2.3692697459
W  W34  1  0.03333000  0.83495000  0.49394000  1.0 2.3692697459
W  W35  1  0.16505000  0.96667000  0.99394000  1.0 2.3692697459
W  W36  1  0.96667000  0.16505000  0.50606000  1.0 2.3692697459
W  W37  1  0.64514000  0.91498000  0.84214000  1.0 2.4599929029
W  W38  1  0.91498000  0.64514000  0.65786000  1.0 2.4599929029
W  W39  1  0.35486000  0.08502000  0.15786000  1.0 2.4599929029
W  W40  1  0.08502000  0.35486000  0.34214000  1.0 2.4599929029
W  W41  1  0.46764000  0.89356000  0.84799000  1.0 2.2560801678
W  W42  1  0.89356000  0.46764000  0.65201000  1.0 2.2522819215
W  W43  1  0.53236000  0.10644000  0.15201000  1.0 2.2522819215
W  W44  1  0.10644000  0.53236000  0.34799000  1.0 2.2522819215
W  W45  1  0.67967000  0.01631000  0.01175000  1.0 2.392490881
W  W46  1  0.01631000  0.67967000  0.48825000  1.0 2.392490881
W  W47  1  0.32033000  0.98369000  0.98825000  1.0 2.392490881
W  W48  1  0.98369000  0.32033000  0.51175000  1.0 2.392490881
C  C1  1  0.87650000  0.22810000  0.76480000  1.0 0.6889411025
C  C2  1  0.22810000  0.87650000  0.73520000  1.0 0.6889411025
C  C3  1  0.12350000  0.77190000  0.23520000  1.0 0.6889411025
C  C4  1  0.77190000  0.12350000  0.26480000  1.0 0.6889411025
C  C5  1  0.09380000  0.44020000  0.66780000  1.0 0.6889411025
C  C6  1  0.44020000  0.09380000  0.83220000  1.0 0.6889411025
C  C7  1  0.90620000  0.55980000  0.33220000  1.0 0.6889411025
C  C8  1  0.55980000  0.90620000  0.16780000  1.0 0.6889411025
C  C9  1  0.01000000  0.15000000  0.86140000  1.0 0.6889411025
C  C10  1  0.15000000  0.01000000  0.63860000  1.0 0.6889411025
C  C11  1  0.99000000  0.85000000  0.13860000  1.0 0.6889411025
C  C12  1  0.85000000  0.99000000  0.36140000  1.0 0.6889411025
C  C13  1  0.25850000  0.33150000  0.75380000  1.0 -0.6122204688
C  C14  1  0.33150000  0.25850000  0.74620000  1.0 -0.6122204688
C  C15  1  0.74150000  0.66850000  0.24620000  1.0 -0.6122204688
C  C16  1  0.66850000  0.74150000  0.25380000  1.0 -0.6122204688
C  C17  1  0.24900000  0.41100000  0.89770000  1.0 0.7035908077
C  C18  1  0.41100000  0.24900000  0.60230000  1.0 0.7035908077
C  C19  1  0.75100000  0.58900000  0.10230000  1.0 0.7050951295
C  C20  1  0.58900000  0.75100000  0.39770000  1.0 0.7035908077
C  C21  1  0.78290000  0.19710000  0.74220000  1.0 -0.6122204688
C  C22  1  0.19710000  0.78290000  0.75780000  1.0 -0.6122204688
C  C23  1  0.21710000  0.80290000  0.25780000  1.0 -0.6190222389
C  C24  1  0.80290000  0.21710000  0.24220000  1.0 -0.6190222389
C  C25  1  0.12660000  0.57740000  0.78590000  1.0 -0.6011829158
C  C26  1  0.57740000  0.12660000  0.71410000  1.0 -0.6011829158
C  C27  1  0.87340000  0.42260000  0.21410000  1.0 -0.6011829158
C  C28  1  0.42260000  0.87340000  0.28590000  1.0 -0.6011829158
C  C29  1  0.13040000  0.50560000  0.80150000  1.0 0.6889411025
C  C30  1  0.50560000  0.13040000  0.69850000  1.0 0.6889411025
C  C31  1  0.86960000  0.49440000  0.19850000  1.0 0.6889411025
C  C32  1  0.49440000  0.86960000  0.30150000  1.0 0.6889411025
C  C33  1  0.99800000  0.06400000  0.89610000  1.0 -0.590382993
C  C34  1  0.06400000  0.99800000  0.60390000  1.0 -0.590382993
C  C35  1  0.00200000  0.93600000  0.10390000  1.0 -0.590382993
C  C36  1  0.93600000  0.00200000  0.39610000  1.0 -0.6011829158
C  C37  1  0.20360000  0.34240000  0.75860000  1.0 0.6889411025
C  C38  1  0.34240000  0.20360000  0.74140000  1.0 0.6889411025
C  C39  1  0.79640000  0.65760000  0.24140000  1.0 0.6889411025
C  C40  1  0.65760000  0.79640000  0.25860000  1.0 0.6889411025
C  C41  1  0.08480000  0.49120000  0.60820000  1.0 -0.590382993
C  C42  1  0.49120000  0.08480000  0.89180000  1.0 -0.590382993
C  C43  1  0.91520000  0.50880000  0.39180000  1.0 -0.590382993
C  C44  1  0.50880000  0.91520000  0.10820000  1.0 -0.590382993
C  C45  1  0.32340000  0.42460000  0.95140000  1.0 -0.6190222389
C  C46  1  0.42460000  0.32340000  0.54860000  1.0 -0.6190222389
C  C47  1  0.67660000  0.57540000  0.04860000  1.0 -0.6190222389
C  C48  1  0.57540000  0.67660000  0.45140000  1.0 -0.6190222389
O  O1  1  0.49830000  0.61030000  0.89430000  1.0 -0.7349318094
O  O2  1  0.61030000  0.49830000  0.60570000  1.0 -0.7371853759
O  O3  1  0.50170000  0.38970000  0.10570000  1.0 -0.7371853759
O  O4  1  0.38970000  0.50170000  0.39430000  1.0 -0.7371853759
O  O5  1  0.24790000  0.41470000  0.77120000  1.0 -0.6190222389
O  O6  1  0.41470000  0.24790000  0.72880000  1.0 -0.6190222389
O  O7  1  0.75210000  0.58530000  0.22880000  1.0 -0.6190222389
O  O8  1  0.58530000  0.75210000  0.27120000  1.0 -0.6190222389
O  O9  1  0.82030000  0.97530000  0.96910000  1.0 -0.8909679852
O  O10  1  0.97530000  0.82030000  0.53090000  1.0 -0.8909679852
O  O11  1  0.17970000  0.02470000  0.03090000  1.0 -0.8909679852
O  O12  1  0.02470000  0.17970000  0.46910000  1.0 -0.8909679852
O  O13  1  0.69490000  0.07290000  0.04340000  1.0 -0.7004849093
O  O14  1  0.07290000  0.69490000  0.45660000  1.0 -0.7004849093
O  O15  1  0.30510000  0.92710000  0.95660000  1.0 -0.7004849093
O  O16  1  0.92710000  0.30510000  0.54340000  1.0 -0.7004849093
O  O17  1  0.11860000  0.28240000  0.74760000  1.0 -0.5184566095
O  O18  1  0.28240000  0.11860000  0.75240000  1.0 -0.5184566095
O  O19  1  0.88140000  0.71760000  0.25240000  1.0 -0.5184566095
O  O20  1  0.71760000  0.88140000  0.24760000  1.0 -0.5184566095
O  O21  1  0.44560000  0.69000000  0.89730000  1.0 -0.9102316582
O  O22  1  0.69000000  0.44560000  0.60270000  1.0 -0.9102316582
O  O23  1  0.55440000  0.31000000  0.10270000  1.0 -0.9102316582
O  O24  1  0.31000000  0.55440000  0.39730000  1.0 -0.9102316582
O  O25  1  0.16310000  0.49010000  0.70030000  1.0 -0.5428505248
O  O26  1  0.49010000  0.16310000  0.79970000  1.0 -0.5428505248
O  O27  1  0.83690000  0.50990000  0.29970000  1.0 -0.5428505248
O  O28  1  0.50990000  0.83690000  0.20030000  1.0 -0.5428505248
O  O29  1  0.67880000  0.79000000  0.12780000  1.0 -0.9394195504
O  O30  1  0.79000000  0.67880000  0.37220000  1.0 -0.9394195504
O  O31  1  0.32120000  0.21000000  0.87220000  1.0 -0.9394195504
O  O32  1  0.21000000  0.32120000  0.62780000  1.0 -0.9394195504
O  O33  1  0.03400000  0.35560000  0.67810000  1.0 -0.6011829158
O  O34  1  0.35560000  0.03400000  0.82190000  1.0 -0.6011829158
O  O35  1  0.96600000  0.64440000  0.32190000  1.0 -0.6011829158
O  O36  1  0.64440000  0.96600000  0.17810000  1.0 -0.6011829158
O  O37  1  0.74430000  0.80850000  0.02430000  1.0 -0.9021184226
O  O38  1  0.80850000  0.74430000  0.47570000  1.0 -0.9021184226
O  O39  1  0.25570000  0.19150000  0.97570000  1.0 -0.9021184226
O  O40  1  0.19150000  0.25570000  0.52430000  1.0 -0.9021184226
O  O41  1  0.18590000  0.52830000  0.78310000  1.0 -0.5428505248
O  O42  1  0.52830000  0.18590000  0.71690000  1.0 -0.5428505248
O  O43  1  0.81410000  0.47170000  0.21690000  1.0 -0.5508148365
O  O44  1  0.47170000  0.81410000  0.28310000  1.0 -0.5508148365
O  O45  1  0.07420000  0.42680000  0.82670000  1.0 -0.6011829158
O  O46  1  0.42680000  0.07420000  0.67330000  1.0 -0.6011829158
O  O47  1  0.92580000  0.57320000  0.17330000  1.0 -0.6011829158
O  O48  1  0.57320000  0.92580000  0.32670000  1.0 -0.6011829158
O  O49  1  0.79140000  0.92260000  0.06130000  1.0 -0.9205572396
O  O50  1  0.92260000  0.79140000  0.43870000  1.0 -0.9205572396
O  O51  1  0.20860000  0.07740000  0.93870000  1.0 -0.9205572396
O  O52  1  0.07740000  0.20860000  0.56130000  1.0 -0.9205572396
O  O53  1  0.36650000  0.82510000  0.97920000  1.0 -0.7004849093
O  O54  1  0.82510000  0.36650000  0.52080000  1.0 -0.7004849093
O  O55  1  0.63350000  0.17490000  0.02080000  1.0 -0.7004849093
O  O56  1  0.17490000  0.63350000  0.47920000  1.0 -0.7004849093
O  O57  1  0.67110000  0.75010000  0.93600000  1.0 -0.8909679852
O  O58  1  0.75010000  0.67110000  0.56400000  1.0 -0.8909679852
O  O59  1  0.32890000  0.24990000  0.06400000  1.0 -0.8909679852
O  O60  1  0.24990000  0.32890000  0.43600000  1.0 -0.8909679852
O  O61  1  0.70420000  0.10320000  0.94260000  1.0 -0.9284106768
O  O62  1  0.10320000  0.70420000  0.55740000  1.0 -0.9284106768
O  O63  1  0.29580000  0.89680000  0.05740000  1.0 -0.9284106768
O  O64  1  0.89680000  0.29580000  0.44260000  1.0 -0.9284106768
O  O65  1  0.47570000  0.77770000  0.03350000  1.0 -0.9205572396
O  O66  1  0.77770000  0.47570000  0.46650000  1.0 -0.9205572396
O  O67  1  0.52430000  0.22230000  0.96650000  1.0 -0.9205572396
O  O68  1  0.22230000  0.52430000  0.53350000  1.0 -0.9205572396
O  O69  1  0.94840000  0.10160000  0.03280000  1.0 -0.7004849093
O  O70  1  0.10160000  0.94840000  0.46720000  1.0 -0.7004849093
O  O71  1  0.05160000  0.89840000  0.96720000  1.0 -0.7004849093
O  O72  1  0.89840000  0.05160000  0.53280000  1.0 -0.7004849093
O  O73  1  0.36440000  0.76120000  0.85030000  1.0 -0.9478510976
O  O74  1  0.76120000  0.36440000  0.64970000  1.0 -0.9478510976
O  O75  1  0.63560000  0.23880000  0.14970000  1.0 -0.9478510976
O  O76  1  0.23880000  0.63560000  0.35030000  1.0 -0.9478510976
O  O77  1  0.58370000  0.00210000  0.86870000  1.0 -0.9205572396
O  O78  1  0.00210000  0.58370000  0.63130000  1.0 -0.9205572396
O  O79  1  0.41630000  0.99790000  0.13130000  1.0 -0.9205572396
O  O80  1  0.99790000  0.41630000  0.36870000  1.0 -0.9205572396
O  O81  1  0.57070000  0.78790000  0.84350000  1.0 -0.960425531
O  O82  1  0.78790000  0.57070000  0.65650000  1.0 -0.960425531
O  O83  1  0.42930000  0.21210000  0.15650000  1.0 -0.960425531
O  O84  1  0.21210000  0.42930000  0.34350000  1.0 -0.960425531
O  O85  1  0.80540000  0.06560000  0.03560000  1.0 -0.9394195504
O  O86  1  0.06560000  0.80540000  0.46440000  1.0 -0.9394195504
O  O87  1  0.19460000  0.93440000  0.96440000  1.0 -0.9394195504
O  O88  1  0.93440000  0.19460000  0.53560000  1.0 -0.9394195504
O  O89  1  0.54140000  0.65340000  0.98630000  1.0 -0.9021184226
O  O90  1  0.65340000  0.54140000  0.51370000  1.0 -0.9021184226
O  O91  1  0.45860000  0.34660000  0.01370000  1.0 -0.9021184226
O  O92  1  0.34660000  0.45860000  0.48630000  1.0 -0.9021184226
O  O93  1  0.41850000  0.63950000  0.98980000  1.0 -0.9394195504
O  O94  1  0.63950000  0.41850000  0.51020000  1.0 -0.9394195504
O  O95  1  0.58150000  0.36050000  0.01020000  1.0 -0.9394195504
O  O96  1  0.36050000  0.58150000  0.48980000  1.0 -0.9394195504
O  O97  1  0.75230000  0.92570000  0.87740000  1.0 -0.9284106768
O  O98  1  0.92570000  0.75230000  0.62260000  1.0 -0.9284106768
O  O99  1  0.24770000  0.07430000  0.12260000  1.0 -0.9284106768
O  O100  1  0.07430000  0.24770000  0.37740000  1.0 -0.9284106768
O  O101  1  0.69260000  0.97240000  0.96680000  1.0 -1.057981459
O  O102  1  0.97240000  0.69260000  0.53320000  1.0 -1.057981459
O  O103  1  0.30740000  0.02760000  0.03320000  1.0 -1.057981459
O  O104  1  0.02760000  0.30740000  0.46680000  1.0 -1.057981459
O  O105  1  0.49360000  0.82140000  0.93100000  1.0 -1.0661146866
O  O106  1  0.82140000  0.49360000  0.56900000  1.0 -1.0661146866
O  O107  1  0.50640000  0.17860000  0.06900000  1.0 -1.0661146866
O  O108  1  0.17860000  0.50640000  0.43100000  1.0 -1.0661146866
O  O109  1  0.90570000  0.23190000  0.73680000  1.0 -0.5822409964
O  O110  1  0.23190000  0.90570000  0.76320000  1.0 -0.5822409964
O  O111  1  0.09430000  0.76810000  0.26320000  1.0 -0.5822409964
O  O112  1  0.76810000  0.09430000  0.23680000  1.0 -0.5822409964
O  O113  1  0.70710000  0.01950000  0.86450000  1.0 -0.9478510976
O  O114  1  0.01950000  0.70710000  0.63550000  1.0 -0.9478510976
O  O115  1  0.29290000  0.98050000  0.13550000  1.0 -0.9478510976
O  O116  1  0.98050000  0.29290000  0.36450000  1.0 -0.9478510976
O  O117  1  0.85620000  0.87960000  0.96540000  1.0 -0.7371853759
O  O118  1  0.87960000  0.85620000  0.53460000  1.0 -0.7371853759
O  O119  1  0.14380000  0.12040000  0.03460000  1.0 -0.7371853759
O  O120  1  0.12040000  0.14380000  0.46540000  1.0 -0.7371853759
O  O121  1  0.44780000  0.51480000  0.06900000  1.0 -0.7063080794
O  O122  1  0.51480000  0.44780000  0.43100000  1.0 -0.7063080794
O  O123  1  0.55220000  0.48520000  0.93100000  1.0 -0.7063080794
O  O124  1  0.48520000  0.55220000  0.56900000  1.0 -0.7063080794
O  O125  1  0.33200000  0.58480000  0.76490000  1.0 -0.5184566095
O  O126  1  0.58480000  0.33200000  0.73510000  1.0 -0.5184566095
O  O127  1  0.66800000  0.41520000  0.23510000  1.0 -0.5184566095
O  O128  1  0.41520000  0.66800000  0.26490000  1.0 -0.5184566095
O  O129  1  0.02440000  0.19820000  0.87900000  1.0 -0.5428505248
O  O130  1  0.19820000  0.02440000  0.62100000  1.0 -0.5428505248
O  O131  1  0.97560000  0.80180000  0.12100000  1.0 -0.5428505248
O  O132  1  0.80180000  0.97560000  0.37900000  1.0 -0.5428505248
O  O133  1  0.92330000  0.25330000  0.80770000  1.0 -0.5684944368
O  O134  1  0.25330000  0.92330000  0.69230000  1.0 -0.5684944368
O  O135  1  0.07670000  0.74670000  0.19230000  1.0 -0.5684944368
O  O136  1  0.74670000  0.07670000  0.30770000  1.0 -0.5684944368
O  O137  1  0.83370000  0.11890000  0.93870000  1.0 -0.9205572396
O  O138  1  0.11890000  0.83370000  0.56130000  1.0 -0.9205572396
O  O139  1  0.16630000  0.88110000  0.06130000  1.0 -0.9205572396
O  O140  1  0.88110000  0.16630000  0.43870000  1.0 -0.9205572396
O  O141  1  0.62530000  0.66390000  0.09130000  1.0 -0.9654891319
O  O142  1  0.66390000  0.62530000  0.40870000  1.0 -0.9654891319
O  O143  1  0.37470000  0.33610000  0.90870000  1.0 -0.960425531
O  O144  1  0.33610000  0.37470000  0.59130000  1.0 -0.9654891319
O  O145  1  0.53600000  0.88660000  0.83220000  1.0 -0.9478510976
O  O146  1  0.88660000  0.53600000  0.66780000  1.0 -0.9478510976
O  O147  1  0.46400000  0.11340000  0.16780000  1.0 -0.9478510976
O  O148  1  0.11340000  0.46400000  0.33220000  1.0 -0.9478510976
O  O149  1  0.55330000  0.94470000  0.97840000  1.0 -0.9021184226
O  O150  1  0.94470000  0.55330000  0.52160000  1.0 -0.9021184226
O  O151  1  0.44670000  0.05530000  0.02160000  1.0 -0.9021184226
O  O152  1  0.05530000  0.44670000  0.47840000  1.0 -0.9021184226
O  O153  1  0.60140000  0.77860000  0.03170000  1.0 -1.057981459
O  O154  1  0.77860000  0.60140000  0.46830000  1.0 -1.057981459
O  O155  1  0.39860000  0.22140000  0.96830000  1.0 -1.057981459
O  O156  1  0.22140000  0.39860000  0.53170000  1.0 -1.057981459
O  O157  1  0.16660000  0.36100000  0.90030000  1.0 -0.6737610526
O  O158  1  0.36100000  0.16660000  0.59970000  1.0 -0.6737610526
O  O159  1  0.83340000  0.63900000  0.09970000  1.0 -0.6737610526
O  O160  1  0.63900000  0.83340000  0.40030000  1.0 -0.6737610526
O  O161  1  0.94080000  0.17520000  0.70000000  1.0 -0.5566128916
O  O162  1  0.17520000  0.94080000  0.80000000  1.0 -0.5508148365
O  O163  1  0.05920000  0.82480000  0.30000000  1.0 -0.5508148365
O  O164  1  0.82480000  0.05920000  0.20000000  1.0 -0.5508148365
O  O165  1  0.41480000  0.88240000  0.88900000  1.0 -0.9394195504
O  O166  1  0.88240000  0.41480000  0.61100000  1.0 -0.9394195504
O  O167  1  0.58520000  0.11760000  0.11100000  1.0 -0.9478510976
O  O168  1  0.11760000  0.58520000  0.38900000  1.0 -0.9394195504
O  O169  1  0.33760000  0.71060000  0.94680000  1.0 -0.9478510976
O  O170  1  0.71060000  0.33760000  0.55320000  1.0 -0.960425531
O  O171  1  0.66240000  0.28940000  0.05320000  1.0 -0.960425531
O  O172  1  0.28940000  0.66240000  0.44680000  1.0 -0.960425531
O  O173  1  0.27190000  0.45110000  0.85510000  1.0 -0.5508148365
O  O174  1  0.45110000  0.27190000  0.64490000  1.0 -0.5508148365
O  O175  1  0.72810000  0.54890000  0.14490000  1.0 -0.5508148365
O  O176  1  0.54890000  0.72810000  0.35510000  1.0 -0.5508148365
O  O177  1  0.63640000  0.84000000  0.92440000  1.0 -1.0661146866
O  O178  1  0.84000000  0.63640000  0.57560000  1.0 -1.0661146866
O  O179  1  0.36360000  0.16000000  0.07560000  1.0 -1.0661146866
O  O180  1  0.16000000  0.36360000  0.42440000  1.0 -1.0661146866
O  O181  1  0.09180000  0.34520000  0.79260000  1.0 -1.0661146866
O  O182  1  0.34520000  0.09180000  0.70740000  1.0 -1.0661146866
O  O183  1  0.90820000  0.65480000  0.20740000  1.0 -1.0661146866
O  O184  1  0.65480000  0.90820000  0.29260000  1.0 -1.0661146866
O  O185  1  0.64660000  0.90640000  0.06510000  1.0 -0.9021184226
O  O186  1  0.90640000  0.64660000  0.43490000  1.0 -0.9102316582
O  O187  1  0.35340000  0.09360000  0.93490000  1.0 -0.9102316582
O  O188  1  0.09360000  0.35340000  0.56510000  1.0 -0.9102316582
O  O189  1  0.99500000  0.15820000  0.81090000  1.0 -0.5822409964
O  O190  1  0.15820000  0.99500000  0.68910000  1.0 -0.5822409964
O  O191  1  0.00500000  0.84180000  0.18910000  1.0 -0.5822409964
O  O192  1  0.84180000  0.00500000  0.31090000  1.0 -0.5822409964
O  O193  1  0.49840000  0.65280000  0.09400000  1.0 -0.9478510976
O  O194  1  0.65280000  0.49840000  0.40600000  1.0 -0.9478510976
O  O195  1  0.50160000  0.34720000  0.90600000  1.0 -0.9478510976
O  O196  1  0.34720000  0.50160000  0.59400000  1.0 -0.9478510976
