# DDEC6 charges by PACMAN v1.1 (https://github.com/mtap-research/PACMAN-charge/)
data_XONLES01_ASR_pacman
_symmetry_space_group_name_H-M   'P 1'
_cell_length_a   39.86610000
_cell_length_b   39.86610000
_cell_length_c   39.86610000
_cell_angle_alpha   144.20600000
_cell_angle_beta   144.20600000
_cell_angle_gamma   51.51910000
_symmetry_Int_Tables_number   1
_chemical_formula_structural   CuH12C28O5
_chemical_formula_sum   'Cu8 H96 C224 O40'
_cell_volume   21555.59203259
_cell_formula_units_Z   8
loop_
 _symmetry_equiv_pos_site_id
 _symmetry_equiv_pos_as_xyz
  1  'x, y, z'
loop_
 _atom_site_type_symbol
 _atom_site_label
 _atom_site_symmetry_multiplicity
 _atom_site_fract_x
 _atom_site_fract_y
 _atom_site_fract_z
 _atom_site_occupancy
 _atom_site_charge
Cu  Cu1  1  0.10078000  0.09693000  0.92437000  1.0 0.848789794
Cu  Cu2  1  0.17256000  0.17641000  0.07563000  1.0 0.848789794
Cu  Cu3  1  0.84693000  0.42256000  0.49615000  1.0 0.848789794
Cu  Cu4  1  0.92641000  0.35078000  0.50385000  1.0 0.848789794
Cu  Cu5  1  0.57744000  0.15307000  0.50385000  1.0 0.848789794
Cu  Cu6  1  0.64922000  0.07359000  0.49615000  1.0 0.848789794
Cu  Cu7  1  0.82359000  0.82744000  0.92437000  1.0 0.848789794
Cu  Cu8  1  0.90307000  0.89922000  0.07563000  1.0 0.848789794
H  H1  1  0.15090000  0.88680000  0.89850000  1.0 0.1103735785
H  H2  1  0.98830000  0.25240000  0.10150000  1.0 0.1103735785
H  H3  1  0.63680000  0.23830000  0.23590000  1.0 0.1103735785
H  H4  1  0.00240000  0.40090000  0.76410000  1.0 0.1103735785
H  H5  1  0.76170000  0.36320000  0.76410000  1.0 0.1103735785
H  H6  1  0.59910000  0.99760000  0.23590000  1.0 0.1103735785
H  H7  1  0.74760000  0.01170000  0.89850000  1.0 0.1103735785
H  H8  1  0.11320000  0.84910000  0.10150000  1.0 0.1103735785
H  H9  1  0.12670000  0.95340000  0.89330000  1.0 0.1279571726
H  H10  1  0.06010000  0.23340000  0.10670000  1.0 0.1279571726
H  H11  1  0.70340000  0.31010000  0.32670000  1.0 0.1279571726
H  H12  1  0.98340000  0.37670000  0.67330000  1.0 0.1279571726
H  H13  1  0.68990000  0.29660000  0.67330000  1.0 0.1279571726
H  H14  1  0.62330000  0.01660000  0.32670000  1.0 0.1279571726
H  H15  1  0.76660000  0.93990000  0.89330000  1.0 0.1279571726
H  H16  1  0.04660000  0.87330000  0.10670000  1.0 0.1279571726
H  H17  1  0.23810000  0.07540000  0.12570000  1.0 0.1279571726
H  H18  1  0.94970000  0.11240000  0.87430000  1.0 0.1279571726
H  H19  1  0.82540000  0.19970000  0.33730000  1.0 0.1279571726
H  H20  1  0.86240000  0.48810000  0.66270000  1.0 0.1279571726
H  H21  1  0.80030000  0.17460000  0.66270000  1.0 0.1279571726
H  H22  1  0.51190000  0.13760000  0.33730000  1.0 0.1279571726
H  H23  1  0.88760000  0.05030000  0.12570000  1.0 0.1279571726
H  H24  1  0.92460000  0.76190000  0.87430000  1.0 0.1279571726
H  H25  1  0.26230000  0.00880000  0.13090000  1.0 0.1103735785
H  H26  1  0.87790000  0.13140000  0.86910000  1.0 0.1103735785
H  H27  1  0.75880000  0.12790000  0.24650000  1.0 0.1103735785
H  H28  1  0.88140000  0.51230000  0.75350000  1.0 0.1103735785
H  H29  1  0.87210000  0.24120000  0.75350000  1.0 0.1103735785
H  H30  1  0.48770000  0.11860000  0.24650000  1.0 0.1103735785
H  H31  1  0.86860000  0.12210000  0.13090000  1.0 0.1103735785
H  H32  1  0.99120000  0.73770000  0.86910000  1.0 0.1103735785
H  H33  1  0.40230000  0.82540000  0.18690000  1.0 0.1385348137
H  H34  1  0.63850000  0.21540000  0.81310000  1.0 0.1385348137
H  H35  1  0.57540000  0.88850000  0.92310000  1.0 0.1385348137
H  H36  1  0.96540000  0.65230000  0.07690000  1.0 0.1385348137
H  H37  1  0.11150000  0.42460000  0.07690000  1.0 0.1385348137
H  H38  1  0.34770000  0.03460000  0.92310000  1.0 0.1385348137
H  H39  1  0.78460000  0.36150000  0.18690000  1.0 0.1385348137
H  H40  1  0.17460000  0.59770000  0.81310000  1.0 0.1385348137
H  H41  1  0.30850000  0.92760000  0.11530000  1.0 0.1103735785
H  H42  1  0.81230000  0.19320000  0.88470000  1.0 0.1103735785
H  H43  1  0.67760000  0.06230000  0.11910000  1.0 0.1103735785
H  H44  1  0.94320000  0.55850000  0.88090000  1.0 0.1103735785
H  H45  1  0.93770000  0.32240000  0.88090000  1.0 0.1103735785
H  H46  1  0.44150000  0.05680000  0.11910000  1.0 0.1103735785
H  H47  1  0.80680000  0.18770000  0.11530000  1.0 0.1103735785
H  H48  1  0.07240000  0.69150000  0.88470000  1.0 0.1103735785
H  H49  1  0.14360000  0.85280000  0.92020000  1.0 0.1103735785
H  H50  1  0.93260000  0.22340000  0.07980000  1.0 0.1103735785
H  H51  1  0.60280000  0.18260000  0.20920000  1.0 0.1103735785
H  H52  1  0.97340000  0.39360000  0.79080000  1.0 0.1103735785
H  H53  1  0.81740000  0.39720000  0.79080000  1.0 0.1103735785
H  H54  1  0.60640000  0.02660000  0.20920000  1.0 0.1103735785
H  H55  1  0.77660000  0.06740000  0.92020000  1.0 0.1103735785
H  H56  1  0.14720000  0.85640000  0.07980000  1.0 0.1103735785
H  H57  1  0.16970000  0.78510000  0.92480000  1.0 0.1103735785
H  H58  1  0.86030000  0.24490000  0.07520000  1.0 0.1103735785
H  H59  1  0.53510000  0.11030000  0.11540000  1.0 0.1103735785
H  H60  1  0.99490000  0.41970000  0.88460000  1.0 0.1103735785
H  H61  1  0.88970000  0.46490000  0.88460000  1.0 0.1103735785
H  H62  1  0.58030000  0.00510000  0.11540000  1.0 0.1103735785
H  H63  1  0.75510000  0.13970000  0.92480000  1.0 0.1103735785
H  H64  1  0.21490000  0.83030000  0.07520000  1.0 0.1103735785
H  H65  1  0.45790000  0.85640000  0.20330000  1.0 0.1243136942
H  H66  1  0.65310000  0.25460000  0.79670000  1.0 0.1243136942
H  H67  1  0.60640000  0.90310000  0.89850000  1.0 0.1243136942
H  H68  1  0.00460000  0.70790000  0.10150000  1.0 0.1243136942
H  H69  1  0.09690000  0.39360000  0.10150000  1.0 0.1243136942
H  H70  1  0.29210000  0.99540000  0.89850000  1.0 0.1243136942
H  H71  1  0.74540000  0.34690000  0.20330000  1.0 0.1243136942
H  H72  1  0.14360000  0.54210000  0.79670000  1.0 0.1243136942
H  H73  1  0.53160000  0.92650000  0.30470000  1.0 0.1243136942
H  H74  1  0.62180000  0.22690000  0.69530000  1.0 0.1279571726
H  H75  1  0.67650000  0.87180000  0.89490000  1.0 0.1243136942
H  H76  1  0.97690000  0.78160000  0.10510000  1.0 0.1279571726
H  H77  1  0.12820000  0.32350000  0.10510000  1.0 0.1279571726
H  H78  1  0.21840000  0.02310000  0.89490000  1.0 0.1279571726
H  H79  1  0.77310000  0.37820000  0.30470000  1.0 0.1243136942
H  H80  1  0.07350000  0.46840000  0.69530000  1.0 0.1243136942
H  H81  1  0.42960000  0.05060000  0.34460000  1.0 0.1243136942
H  H82  1  0.70600000  0.08500000  0.65540000  1.0 0.1243136942
H  H83  1  0.80060000  0.95600000  0.12100000  1.0 0.1243136942
H  H84  1  0.83500000  0.67960000  0.87900000  1.0 0.1243136942
H  H85  1  0.04400000  0.19940000  0.87900000  1.0 0.1243136942
H  H86  1  0.32040000  0.16500000  0.12100000  1.0 0.1243136942
H  H87  1  0.91500000  0.29400000  0.34460000  1.0 0.1243136942
H  H88  1  0.94940000  0.57040000  0.65540000  1.0 0.1243136942
H  H89  1  0.35600000  0.98060000  0.24320000  1.0 0.1103735785
H  H90  1  0.73740000  0.11280000  0.75680000  1.0 0.1103735785
H  H91  1  0.73060000  0.98740000  0.12460000  1.0 0.1103735785
H  H92  1  0.86280000  0.60600000  0.87540000  1.0 0.1103735785
H  H93  1  0.01260000  0.26940000  0.87540000  1.0 0.1103735785
H  H94  1  0.39400000  0.13720000  0.12460000  1.0 0.1103735785
H  H95  1  0.88720000  0.26260000  0.24320000  1.0 0.1103735785
H  H96  1  0.01940000  0.64400000  0.75680000  1.0 0.1103735785
C  C1  1  0.16320000  0.06170000  0.00070000  1.0 0.5663330793
C  C2  1  0.06100000  0.16250000  0.99930000  1.0 0.5663330793
C  C3  1  0.81170000  0.31100000  0.39850000  1.0 0.5663330793
C  C4  1  0.91250000  0.41320000  0.60150000  1.0 0.5663330793
C  C5  1  0.68900000  0.18830000  0.60150000  1.0 0.5663330793
C  C6  1  0.58680000  0.08750000  0.39850000  1.0 0.5663330793
C  C7  1  0.83750000  0.93900000  0.00070000  1.0 0.5663330793
C  C8  1  0.93830000  0.83680000  0.99930000  1.0 0.5663330793
C  C9  1  0.20895000  0.94134000  0.01517000  1.0 0.0773680181
C  C10  1  0.92617000  0.19378000  0.98483000  1.0 0.0773680181
C  C11  1  0.69134000  0.17617000  0.23239000  1.0 0.0773680181
C  C12  1  0.94378000  0.45895000  0.76761000  1.0 0.0773680181
C  C13  1  0.82383000  0.30866000  0.76761000  1.0 0.0773680181
C  C14  1  0.54105000  0.05622000  0.23239000  1.0 0.0773680181
C  C15  1  0.80622000  0.07383000  0.01517000  1.0 0.0773680181
C  C16  1  0.05866000  0.79105000  0.98483000  1.0 0.0773680181
C  C17  1  0.16850000  0.92479000  0.94431000  1.0 -0.150026415
C  C18  1  0.98048000  0.22419000  0.05569000  1.0 -0.150026415
C  C19  1  0.67479000  0.23048000  0.25629000  1.0 -0.150026415
C  C20  1  0.97419000  0.41850000  0.74371000  1.0 -0.150026415
C  C21  1  0.76952000  0.32521000  0.74371000  1.0 -0.150026415
C  C22  1  0.58150000  0.02581000  0.25629000  1.0 -0.150026415
C  C23  1  0.77581000  0.01952000  0.94431000  1.0 -0.150026415
C  C24  1  0.07521000  0.83150000  0.05569000  1.0 -0.150026415
C  C25  1  0.15405000  0.96447000  0.94118000  1.0 -0.0896293469
C  C26  1  0.02329000  0.21287000  0.05882000  1.0 -0.0896293469
C  C27  1  0.71447000  0.27329000  0.31042000  1.0 -0.0896293469
C  C28  1  0.96287000  0.40405000  0.68958000  1.0 -0.0896293469
C  C29  1  0.72671000  0.28553000  0.68958000  1.0 -0.0896293469
C  C30  1  0.59595000  0.03713000  0.31042000  1.0 -0.0896293469
C  C31  1  0.78713000  0.97671000  0.94118000  1.0 -0.0896293469
C  C32  1  0.03553000  0.84595000  0.05882000  1.0 -0.0896293469
C  C33  1  0.18005000  0.02080000  0.00899000  1.0 -0.0204409191
C  C34  1  0.01181000  0.17106000  0.99101000  1.0 -0.0204409191
C  C35  1  0.77080000  0.26181000  0.34075000  1.0 -0.0204409191
C  C36  1  0.92106000  0.43005000  0.65925000  1.0 -0.0204409191
C  C37  1  0.73819000  0.22920000  0.65925000  1.0 -0.0204409191
C  C38  1  0.56995000  0.07894000  0.34075000  1.0 -0.0204409191
C  C39  1  0.82894000  0.98819000  0.00899000  1.0 -0.0204409191
C  C40  1  0.97920000  0.81995000  0.99101000  1.0 -0.0204409191
C  C41  1  0.22050000  0.03735000  0.07983000  1.0 -0.0896293469
C  C42  1  0.95752000  0.14067000  0.92017000  1.0 -0.0896293469
C  C43  1  0.78735000  0.20752000  0.31685000  1.0 -0.0896293469
C  C44  1  0.89067000  0.47050000  0.68315000  1.0 -0.0896293469
C  C45  1  0.79248000  0.21265000  0.68315000  1.0 -0.0896293469
C  C46  1  0.52950000  0.10933000  0.31685000  1.0 -0.0896293469
C  C47  1  0.85933000  0.04248000  0.07983000  1.0 -0.0896293469
C  C48  1  0.96265000  0.77950000  0.92017000  1.0 -0.0896293469
C  C49  1  0.23495000  0.99763000  0.08292000  1.0 -0.1600087115
C  C50  1  0.91471000  0.15203000  0.91708000  1.0 -0.1600087115
C  C51  1  0.74763000  0.16471000  0.26268000  1.0 -0.1600087115
C  C52  1  0.90203000  0.48495000  0.73732000  1.0 -0.1600087115
C  C53  1  0.83529000  0.25237000  0.73732000  1.0 -0.1600087115
C  C54  1  0.51505000  0.09797000  0.26268000  1.0 -0.1600087115
C  C55  1  0.84797000  0.08529000  0.08292000  1.0 -0.1600087115
C  C56  1  0.00237000  0.76505000  0.91708000  1.0 -0.1600087115
C  C57  1  0.29481000  0.86221000  0.08540000  1.0 0.0197427026
C  C58  1  0.77681000  0.20941000  0.91460000  1.0 0.0197427026
C  C59  1  0.61221000  0.02681000  0.06740000  1.0 0.0197427026
C  C60  1  0.95941000  0.54481000  0.93260000  1.0 0.0197427026
C  C61  1  0.97319000  0.38779000  0.93260000  1.0 0.0197427026
C  C62  1  0.45519000  0.04059000  0.06740000  1.0 0.0197427026
C  C63  1  0.79059000  0.22319000  0.08540000  1.0 0.0197427026
C  C64  1  0.13779000  0.70519000  0.91460000  1.0 0.0197427026
C  C65  1  0.35062000  0.86431000  0.14477000  1.0 0.0328585937
C  C66  1  0.71954000  0.20585000  0.85523000  1.0 0.0328585937
C  C67  1  0.61431000  0.96954000  0.01369000  1.0 0.0328585937
C  C68  1  0.95585000  0.60062000  0.98631000  1.0 0.0328585937
C  C69  1  0.03046000  0.38569000  0.98631000  1.0 0.0328585937
C  C70  1  0.39938000  0.04415000  0.01369000  1.0 0.0328585937
C  C71  1  0.79415000  0.28046000  0.14477000  1.0 0.0328585937
C  C72  1  0.13569000  0.64938000  0.85523000  1.0 0.0328585937
C  C73  1  0.36455000  0.82391000  0.14664000  1.0 -0.2563883536
C  C74  1  0.67727000  0.21791000  0.85336000  1.0 -0.2563883536
C  C75  1  0.57391000  0.92727000  0.95936000  1.0 -0.2563883536
C  C76  1  0.96791000  0.61455000  0.04064000  1.0 -0.2549724453
C  C77  1  0.07273000  0.42609000  0.04064000  1.0 -0.2563883536
C  C78  1  0.38545000  0.03209000  0.95936000  1.0 -0.2563883536
C  C79  1  0.78209000  0.32273000  0.14664000  1.0 -0.2549724453
C  C80  1  0.17609000  0.63545000  0.85336000  1.0 -0.2563883536
C  C81  1  0.32269000  0.78152000  0.08927000  1.0 0.2120534382
C  C82  1  0.69225000  0.23342000  0.91073000  1.0 0.2120534382
C  C83  1  0.53152000  0.94225000  0.95883000  1.0 0.2120534382
C  C84  1  0.98342000  0.57269000  0.04117000  1.0 0.2120534382
C  C85  1  0.05775000  0.46848000  0.04117000  1.0 0.2120534382
C  C86  1  0.42731000  0.01658000  0.95883000  1.0 0.2120534382
C  C87  1  0.76658000  0.30775000  0.08927000  1.0 0.2120534382
C  C88  1  0.21848000  0.67731000  0.91073000  1.0 0.2120534382
C  C89  1  0.26688000  0.77943000  0.02991000  1.0 -0.0487094018
C  C90  1  0.74952000  0.23697000  0.97009000  1.0 -0.0487094018
C  C91  1  0.52943000  0.99952000  0.01255000  1.0 -0.0487094018
C  C92  1  0.98697000  0.51688000  0.98745000  1.0 -0.0487094018
C  C93  1  0.00048000  0.47057000  0.98745000  1.0 -0.0487094018
C  C94  1  0.48312000  0.01303000  0.01255000  1.0 -0.0487094018
C  C95  1  0.76303000  0.25048000  0.02991000  1.0 -0.0487094018
C  C96  1  0.22057000  0.73312000  0.97009000  1.0 -0.0487094018
C  C97  1  0.25294000  0.81977000  0.02797000  1.0 0.0328585937
C  C98  1  0.79180000  0.22497000  0.97203000  1.0 0.0328585937
C  C99  1  0.56977000  0.04180000  0.06683000  1.0 0.0328585937
C  C100  1  0.97497000  0.50294000  0.93317000  1.0 0.0328585937
C  C101  1  0.95820000  0.43023000  0.93317000  1.0 0.0328585937
C  C102  1  0.49706000  0.02503000  0.06683000  1.0 0.0328585937
C  C103  1  0.77503000  0.20820000  0.02797000  1.0 0.0328585937
C  C104  1  0.18023000  0.74706000  0.97203000  1.0 0.0328585937
C  C105  1  0.27980000  0.90040000  0.07860000  1.0 -0.2055380774
C  C106  1  0.82180000  0.20120000  0.92140000  1.0 -0.2055380774
C  C107  1  0.65040000  0.07180000  0.12060000  1.0 -0.2055380774
C  C108  1  0.95120000  0.52980000  0.87940000  1.0 -0.2055380774
C  C109  1  0.92820000  0.34960000  0.87940000  1.0 -0.2055380774
C  C110  1  0.47020000  0.04880000  0.12060000  1.0 -0.2055380774
C  C111  1  0.79880000  0.17820000  0.07860000  1.0 -0.2055380774
C  C112  1  0.09960000  0.72020000  0.92140000  1.0 -0.2055380774
C  C113  1  0.22485000  0.89885000  0.02020000  1.0 0.0730678695
C  C114  1  0.87865000  0.20465000  0.97980000  1.0 0.0730678695
C  C115  1  0.64885000  0.12865000  0.17400000  1.0 0.0730678695
C  C116  1  0.95465000  0.47485000  0.82600000  1.0 0.0730678695
C  C117  1  0.87135000  0.35115000  0.82600000  1.0 0.0730678695
C  C118  1  0.52515000  0.04535000  0.17400000  1.0 0.0730678695
C  C119  1  0.79535000  0.12135000  0.02020000  1.0 0.0730678695
C  C120  1  0.10115000  0.77515000  0.97980000  1.0 0.0730678695
C  C121  1  0.18157000  0.85487000  0.96090000  1.0 -0.1600087115
C  C122  1  0.89397000  0.22067000  0.03910000  1.0 -0.1600087115
C  C123  1  0.60487000  0.14397000  0.17330000  1.0 -0.1600087115
C  C124  1  0.97067000  0.43157000  0.82670000  1.0 -0.1600087115
C  C125  1  0.85603000  0.39513000  0.82670000  1.0 -0.1600087115
C  C126  1  0.56843000  0.02933000  0.17330000  1.0 -0.1600087115
C  C127  1  0.77933000  0.10603000  0.96090000  1.0 -0.1600087115
C  C128  1  0.14513000  0.81843000  0.03910000  1.0 -0.1600087115
C  C129  1  0.19696000  0.81536000  0.96480000  1.0 -0.1397050344
C  C130  1  0.85056000  0.23216000  0.03520000  1.0 -0.1397050344
C  C131  1  0.56536000  0.10056000  0.11840000  1.0 -0.1397050344
C  C132  1  0.98216000  0.44696000  0.88160000  1.0 -0.1397050344
C  C133  1  0.89944000  0.43464000  0.88160000  1.0 -0.1397050344
C  C134  1  0.55304000  0.01784000  0.11840000  1.0 -0.1397050344
C  C135  1  0.76784000  0.14944000  0.96480000  1.0 -0.1397050344
C  C136  1  0.18464000  0.80304000  0.03520000  1.0 -0.1397050344
C  C137  1  0.39986000  0.91173000  0.21349000  1.0 0.090619327
C  C138  1  0.69824000  0.18637000  0.78651000  1.0 0.090619327
C  C139  1  0.66173000  0.94824000  0.01187000  1.0 0.090619327
C  C140  1  0.93637000  0.64986000  0.98813000  1.0 0.090619327
C  C141  1  0.05176000  0.33827000  0.98813000  1.0 0.090619327
C  C142  1  0.35014000  0.06363000  0.01187000  1.0 0.090619327
C  C143  1  0.81363000  0.30176000  0.21349000  1.0 0.090619327
C  C144  1  0.08827000  0.60014000  0.78651000  1.0 0.090619327
C  C145  1  0.45225000  0.89558000  0.23183000  1.0 -0.1600087115
C  C146  1  0.66375000  0.22042000  0.76817000  1.0 -0.1600087115
C  C147  1  0.64558000  0.91375000  0.94333000  1.0 -0.1600087115
C  C148  1  0.97042000  0.70225000  0.05667000  1.0 -0.1600087115
C  C149  1  0.08625000  0.35442000  0.05667000  1.0 -0.1600087115
C  C150  1  0.29775000  0.02958000  0.94333000  1.0 -0.1600087115
C  C151  1  0.77958000  0.33625000  0.23183000  1.0 -0.1600087115
C  C152  1  0.10442000  0.54775000  0.76817000  1.0 -0.1600087115
C  C153  1  0.49620000  0.93738000  0.29232000  1.0 -0.0896293469
C  C154  1  0.64506000  0.20388000  0.70768000  1.0 -0.0896293469
C  C155  1  0.68738000  0.89506000  0.94118000  1.0 -0.0896293469
C  C156  1  0.95388000  0.74620000  0.05882000  1.0 -0.0896293469
C  C157  1  0.10494000  0.31262000  0.05882000  1.0 -0.0896293469
C  C158  1  0.25380000  0.04612000  0.94118000  1.0 -0.0896293469
C  C159  1  0.79612000  0.35494000  0.29232000  1.0 -0.0896293469
C  C160  1  0.06262000  0.50380000  0.70768000  1.0 -0.0896293469
C  C161  1  0.48776000  0.99534000  0.33448000  1.0 -0.0204409191
C  C162  1  0.66086000  0.15328000  0.66552000  1.0 -0.0204409191
C  C163  1  0.74534000  0.91086000  0.00758000  1.0 -0.0204409191
C  C164  1  0.90328000  0.73776000  0.99242000  1.0 -0.0204409191
C  C165  1  0.08914000  0.25466000  0.99242000  1.0 -0.0204409191
C  C166  1  0.26224000  0.09672000  0.00758000  1.0 -0.0204409191
C  C167  1  0.84672000  0.33914000  0.33448000  1.0 -0.0204409191
C  C168  1  0.00466000  0.51224000  0.66552000  1.0 -0.0204409191
C  C169  1  0.43536000  0.01148000  0.31614000  1.0 -0.0896293469
C  C170  1  0.69534000  0.11922000  0.68386000  1.0 -0.0896293469
C  C171  1  0.76148000  0.94534000  0.07612000  1.0 -0.0896293469
C  C172  1  0.86922000  0.68536000  0.92388000  1.0 -0.0896293469
C  C173  1  0.05466000  0.23852000  0.92388000  1.0 -0.0896293469
C  C174  1  0.31464000  0.13078000  0.07612000  1.0 -0.0896293469
C  C175  1  0.88078000  0.30466000  0.31614000  1.0 -0.0896293469
C  C176  1  0.98852000  0.56464000  0.68386000  1.0 -0.0896293469
C  C177  1  0.39141000  0.96968000  0.25565000  1.0 -0.1715010782
C  C178  1  0.71403000  0.13576000  0.74435000  1.0 -0.1715010782
C  C179  1  0.71968000  0.96403000  0.07827000  1.0 -0.1715010782
C  C180  1  0.88576000  0.64141000  0.92173000  1.0 -0.1715010782
C  C181  1  0.03597000  0.28032000  0.92173000  1.0 -0.1715010782
C  C182  1  0.35859000  0.11424000  0.07827000  1.0 -0.1715010782
C  C183  1  0.86424000  0.28597000  0.25565000  1.0 -0.1715010782
C  C184  1  0.03032000  0.60859000  0.74435000  1.0 -0.1715010782
C  C185  1  0.53598000  0.04118000  0.39860000  1.0 0.5663330793
C  C186  1  0.64258000  0.13738000  0.60140000  1.0 0.5663330793
C  C187  1  0.79118000  0.89258000  0.00520000  1.0 0.5663330793
C  C188  1  0.88738000  0.78598000  0.99480000  1.0 0.5663330793
C  C189  1  0.10742000  0.20882000  0.99480000  1.0 0.5663330793
C  C190  1  0.21402000  0.11262000  0.00520000  1.0 0.5663330793
C  C191  1  0.86262000  0.35742000  0.39860000  1.0 0.5663330793
C  C192  1  0.95882000  0.46402000  0.60140000  1.0 0.5663330793
C  C193  1  0.38840000  0.75790000  0.16710000  1.0 0.0581965247
C  C194  1  0.59080000  0.22130000  0.83290000  1.0 0.0581965247
C  C195  1  0.50790000  0.84080000  0.86950000  1.0 0.0581965247
C  C196  1  0.97130000  0.63840000  0.13050000  1.0 0.0581965247
C  C197  1  0.15920000  0.49210000  0.13050000  1.0 0.0581965247
C  C198  1  0.36160000  0.02870000  0.86950000  1.0 0.0581965247
C  C199  1  0.77870000  0.40920000  0.16710000  1.0 0.0581965247
C  C200  1  0.24210000  0.61160000  0.83290000  1.0 0.0581965247
C  C201  1  0.40200000  0.70620000  0.15880000  1.0 -0.2055380774
C  C202  1  0.54740000  0.24320000  0.84120000  1.0 -0.2055380774
C  C203  1  0.45620000  0.79740000  0.80420000  1.0 -0.198641444
C  C204  1  0.99320000  0.65200000  0.19580000  1.0 -0.198641444
C  C205  1  0.20260000  0.54380000  0.19580000  1.0 -0.198641444
C  C206  1  0.34800000  0.00680000  0.80420000  1.0 -0.2055380774
C  C207  1  0.75680000  0.45260000  0.15880000  1.0 -0.2279094034
C  C208  1  0.29380000  0.59800000  0.84120000  1.0 -0.198641444
C  C209  1  0.39210000  0.72340000  0.12170000  1.0 0.1103735785
C  C210  1  0.60170000  0.27040000  0.87830000  1.0 0.1103735785
C  C211  1  0.47340000  0.85170000  0.83130000  1.0 0.1103735785
C  C212  1  0.02040000  0.64210000  0.16870000  1.0 0.1103735785
C  C213  1  0.14830000  0.52660000  0.16870000  1.0 0.1103735785
C  C214  1  0.35790000  0.97960000  0.83130000  1.0 0.1103735785
C  C215  1  0.72960000  0.39830000  0.12170000  1.0 0.1103735785
C  C216  1  0.27660000  0.60790000  0.87830000  1.0 0.1103735785
C  C217  1  0.40160000  0.68540000  0.06820000  1.0 0.0730678695
C  C218  1  0.61720000  0.33340000  0.93180000  1.0 0.0773680181
C  C219  1  0.43540000  0.86720000  0.78380000  1.0 0.0773680181
C  C220  1  0.08340000  0.65160000  0.21620000  1.0 0.0730678695
C  C221  1  0.13280000  0.56460000  0.21620000  1.0 0.0730678695
C  C222  1  0.34840000  0.91660000  0.78380000  1.0 0.0773680181
C  C223  1  0.66666667  0.38280000  0.06820000  1.0 0.0773680181
C  C224  1  0.31460000  0.59840000  0.93180000  1.0 0.0730678695
O  O1  1  0.12435000  0.04661000  0.93734000  1.0 -0.4787897789
O  O2  1  0.10927000  0.18701000  0.06266000  1.0 -0.4787897789
O  O3  1  0.79661000  0.35927000  0.42226000  1.0 -0.4787897789
O  O4  1  0.93701000  0.37435000  0.57774000  1.0 -0.4787897789
O  O5  1  0.64073000  0.20339000  0.57774000  1.0 -0.4787897789
O  O6  1  0.62565000  0.06299000  0.42226000  1.0 -0.4787897789
O  O7  1  0.81299000  0.89073000  0.93734000  1.0 -0.4787897789
O  O8  1  0.95339000  0.87565000  0.06266000  1.0 -0.4787897789
O  O9  1  0.19082000  0.11383000  0.06837000  1.0 -0.5573880025
O  O10  1  0.04546000  0.12245000  0.93163000  1.0 -0.5573880025
O  O11  1  0.86383000  0.29546000  0.42301000  1.0 -0.5573880025
O  O12  1  0.87245000  0.44082000  0.57699000  1.0 -0.5573880025
O  O13  1  0.70454000  0.13617000  0.57699000  1.0 -0.5573880025
O  O14  1  0.55918000  0.12755000  0.42301000  1.0 -0.5573880025
O  O15  1  0.87755000  0.95454000  0.06837000  1.0 -0.5573880025
O  O16  1  0.88617000  0.80918000  0.93163000  1.0 -0.5573880025
O  O17  1  0.58301000  0.02080000  0.41441000  1.0 -0.5206901106
O  O18  1  0.60639000  0.16860000  0.58559000  1.0 -0.5206901106
O  O19  1  0.77080000  0.85639000  0.93779000  1.0 -0.5206901106
O  O20  1  0.91860000  0.83301000  0.06221000  1.0 -0.5206901106
O  O21  1  0.14361000  0.22920000  0.06221000  1.0 -0.5206901106
O  O22  1  0.16699000  0.08140000  0.93779000  1.0 -0.5206901106
O  O23  1  0.83140000  0.39361000  0.41441000  1.0 -0.5206901106
O  O24  1  0.97920000  0.41699000  0.58559000  1.0 -0.5206901106
O  O25  1  0.52267000  0.09158000  0.42749000  1.0 -0.5143188708
O  O26  1  0.66409000  0.09518000  0.57251000  1.0 -0.5143188708
O  O27  1  0.84158000  0.91409000  0.06891000  1.0 -0.5143188708
O  O28  1  0.84518000  0.77267000  0.93109000  1.0 -0.5143188708
O  O29  1  0.08591000  0.15842000  0.93109000  1.0 -0.5206901106
O  O30  1  0.22733000  0.15482000  0.06891000  1.0 -0.5143188708
O  O31  1  0.90482000  0.33591000  0.42749000  1.0 -0.5143188708
O  O32  1  0.90842000  0.47733000  0.57251000  1.0 -0.5143188708
O  O33  1  0.33393000  0.74163000  0.08930000  1.0 -0.0674569062
O  O34  1  0.65233000  0.24463000  0.91070000  1.0 -0.0674569062
O  O35  1  0.49163000  0.90233000  0.90770000  1.0 -0.0674569062
O  O36  1  0.99463000  0.58393000  0.09230000  1.0 -0.0674569062
O  O37  1  0.09767000  0.50837000  0.09230000  1.0 -0.0674569062
O  O38  1  0.41607000  0.00537000  0.90770000  1.0 -0.0674569062
O  O39  1  0.75537000  0.34767000  0.08930000  1.0 -0.0674569062
O  O40  1  0.25837000  0.66607000  0.91070000  1.0 -0.0674569062
