# DDEC6 charges by PACMAN v1.1 (https://github.com/mtap-research/PACMAN-charge/)
data_XONLES_ASR_pacman
_symmetry_space_group_name_H-M   'P 1'
_cell_length_a   40.00240000
_cell_length_b   40.00240000
_cell_length_c   40.00240000
_cell_angle_alpha   144.27900000
_cell_angle_beta   144.27900000
_cell_angle_gamma   51.41070000
_symmetry_Int_Tables_number   1
_chemical_formula_structural   CuH12C28O5
_chemical_formula_sum   'Cu8 H96 C224 O40'
_cell_volume   21701.48887079
_cell_formula_units_Z   8
loop_
 _symmetry_equiv_pos_site_id
 _symmetry_equiv_pos_as_xyz
  1  'x, y, z'
loop_
 _atom_site_type_symbol
 _atom_site_label
 _atom_site_symmetry_multiplicity
 _atom_site_fract_x
 _atom_site_fract_y
 _atom_site_fract_z
 _atom_site_occupancy
 _atom_site_charge
Cu  Cu1  1  0.57710000  0.15317000  0.50509000  1.0 0.8534155305
Cu  Cu2  1  0.64808000  0.07201000  0.49491000  1.0 0.8534155305
Cu  Cu3  1  0.90317000  0.89808000  0.07607000  1.0 0.8534155305
Cu  Cu4  1  0.82201000  0.82710000  0.92393000  1.0 0.8534155305
Cu  Cu5  1  0.10192000  0.09683000  0.92393000  1.0 0.8534155305
Cu  Cu6  1  0.17290000  0.17799000  0.07607000  1.0 0.8534155305
Cu  Cu7  1  0.92799000  0.35192000  0.50509000  1.0 0.8534155305
Cu  Cu8  1  0.84683000  0.42290000  0.49491000  1.0 0.8534155305
H  H1  1  0.15080000  0.88790000  0.89870000  1.0 0.112491742
H  H2  1  0.98920000  0.25210000  0.10130000  1.0 0.112491742
H  H3  1  0.63790000  0.23920000  0.23710000  1.0 0.112491742
H  H4  1  0.00210000  0.40080000  0.76290000  1.0 0.112491742
H  H5  1  0.76080000  0.36210000  0.76290000  1.0 0.112491742
H  H6  1  0.59920000  0.99790000  0.23710000  1.0 0.112491742
H  H7  1  0.74790000  0.01080000  0.89870000  1.0 0.112491742
H  H8  1  0.11210000  0.84920000  0.10130000  1.0 0.112491742
H  H9  1  0.12750000  0.95360000  0.89250000  1.0 0.12766438
H  H10  1  0.06110000  0.23500000  0.10750000  1.0 0.12766438
H  H11  1  0.70360000  0.31110000  0.32610000  1.0 0.12766438
H  H12  1  0.98500000  0.37750000  0.67390000  1.0 0.12766438
H  H13  1  0.68890000  0.29640000  0.67390000  1.0 0.12766438
H  H14  1  0.62250000  0.01500000  0.32610000  1.0 0.12766438
H  H15  1  0.76500000  0.93890000  0.89250000  1.0 0.12766438
H  H16  1  0.04640000  0.87250000  0.10750000  1.0 0.12766438
H  H17  1  0.23750000  0.07780000  0.12570000  1.0 0.1198076591
H  H18  1  0.95210000  0.11180000  0.87430000  1.0 0.1198076591
H  H19  1  0.82780000  0.20210000  0.34030000  1.0 0.1198076591
H  H20  1  0.86180000  0.48750000  0.65970000  1.0 0.1198076591
H  H21  1  0.79790000  0.17220000  0.65970000  1.0 0.1198076591
H  H22  1  0.51250000  0.13820000  0.34030000  1.0 0.1198076591
H  H23  1  0.88820000  0.04790000  0.12570000  1.0 0.1198076591
H  H24  1  0.92220000  0.76250000  0.87430000  1.0 0.1198076591
H  H25  1  0.26070000  0.01200000  0.13190000  1.0 0.1198076591
H  H26  1  0.88010000  0.12880000  0.86810000  1.0 0.1198076591
H  H27  1  0.76200000  0.13010000  0.25130000  1.0 0.1198076591
H  H28  1  0.87880000  0.51070000  0.74870000  1.0 0.1198076591
H  H29  1  0.86990000  0.23800000  0.74870000  1.0 0.1198076591
H  H30  1  0.48930000  0.12120000  0.25130000  1.0 0.1198076591
H  H31  1  0.87120000  0.11990000  0.13190000  1.0 0.1198076591
H  H32  1  0.98800000  0.73930000  0.86810000  1.0 0.1198076591
H  H33  1  0.39890000  0.83120000  0.19090000  1.0 0.1392032693
H  H34  1  0.64030000  0.20800000  0.80910000  1.0 0.1392032693
H  H35  1  0.58120000  0.89030000  0.93230000  1.0 0.1392032693
H  H36  1  0.95800000  0.64890000  0.06770000  1.0 0.1392032693
H  H37  1  0.10970000  0.41880000  0.06770000  1.0 0.1392032693
H  H38  1  0.35110000  0.04200000  0.93230000  1.0 0.1392032693
H  H39  1  0.79200000  0.35970000  0.19090000  1.0 0.1392032693
H  H40  1  0.16880000  0.60110000  0.80910000  1.0 0.1392032693
H  H41  1  0.30710000  0.93040000  0.11690000  1.0 0.112491742
H  H42  1  0.81350000  0.19020000  0.88310000  1.0 0.112491742
H  H43  1  0.68040000  0.06350000  0.12330000  1.0 0.112491742
H  H44  1  0.94020000  0.55710000  0.87670000  1.0 0.112491742
H  H45  1  0.93650000  0.31960000  0.87670000  1.0 0.112491742
H  H46  1  0.44290000  0.05980000  0.12330000  1.0 0.112491742
H  H47  1  0.80980000  0.18650000  0.11690000  1.0 0.112491742
H  H48  1  0.06960000  0.69290000  0.88310000  1.0 0.112491742
H  H49  1  0.14320000  0.85700000  0.92240000  1.0 0.1198076591
H  H50  1  0.93460000  0.22080000  0.07760000  1.0 0.1198076591
H  H51  1  0.60700000  0.18460000  0.21380000  1.0 0.1198076591
H  H52  1  0.97080000  0.39320000  0.78620000  1.0 0.1198076591
H  H53  1  0.81540000  0.39300000  0.78620000  1.0 0.1198076591
H  H54  1  0.60680000  0.02920000  0.21380000  1.0 0.1198076591
H  H55  1  0.77920000  0.06540000  0.92240000  1.0 0.1198076591
H  H56  1  0.14300000  0.85680000  0.07760000  1.0 0.1198076591
H  H57  1  0.16550000  0.79160000  0.92690000  1.0 0.1198076591
H  H58  1  0.86470000  0.23860000  0.07310000  1.0 0.1198076591
H  H59  1  0.54160000  0.11470000  0.12610000  1.0 0.1198076591
H  H60  1  0.98860000  0.41550000  0.87390000  1.0 0.1198076591
H  H61  1  0.88530000  0.45840000  0.87390000  1.0 0.1198076591
H  H62  1  0.58450000  0.01140000  0.12610000  1.0 0.1198076591
H  H63  1  0.76140000  0.13530000  0.92690000  1.0 0.1198076591
H  H64  1  0.20840000  0.83450000  0.07310000  1.0 0.1198076591
H  H65  1  0.45330000  0.85690000  0.20160000  1.0 0.1198076591
H  H66  1  0.65530000  0.25170000  0.79840000  1.0 0.1198076591
H  H67  1  0.60690000  0.90530000  0.90360000  1.0 0.1198076591
H  H68  1  0.00170000  0.70330000  0.09640000  1.0 0.1198076591
H  H69  1  0.09470000  0.39310000  0.09640000  1.0 0.1198076591
H  H70  1  0.29670000  0.99830000  0.90360000  1.0 0.1198076591
H  H71  1  0.74830000  0.34470000  0.20160000  1.0 0.1198076591
H  H72  1  0.14310000  0.54670000  0.79840000  1.0 0.1198076591
H  H73  1  0.52820000  0.92560000  0.30200000  1.0 0.1198076591
H  H74  1  0.62360000  0.22620000  0.69800000  1.0 0.1198076591
H  H75  1  0.67560000  0.87360000  0.89740000  1.0 0.1198076591
H  H76  1  0.97620000  0.77820000  0.10260000  1.0 0.1198076591
H  H77  1  0.12640000  0.32440000  0.10260000  1.0 0.1198076591
H  H78  1  0.22180000  0.02380000  0.89740000  1.0 0.1198076591
H  H79  1  0.77380000  0.37640000  0.30200000  1.0 0.1198076591
H  H80  1  0.07440000  0.47180000  0.69800000  1.0 0.1198076591
H  H81  1  0.42820000  0.05290000  0.34490000  1.0 0.1198076591
H  H82  1  0.70800000  0.08330000  0.65510000  1.0 0.1198076591
H  H83  1  0.80290000  0.95800000  0.12470000  1.0 0.1198076591
H  H84  1  0.83330000  0.67820000  0.87530000  1.0 0.1198076591
H  H85  1  0.04200000  0.19710000  0.87530000  1.0 0.1198076591
H  H86  1  0.32180000  0.16670000  0.12470000  1.0 0.1198076591
H  H87  1  0.91670000  0.29200000  0.34490000  1.0 0.1198076591
H  H88  1  0.94710000  0.57180000  0.65510000  1.0 0.1198076591
H  H89  1  0.35330000  0.98420000  0.24450000  1.0 0.112491742
H  H90  1  0.73970000  0.10880000  0.75550000  1.0 0.112491742
H  H91  1  0.73420000  0.98970000  0.13090000  1.0 0.112491742
H  H92  1  0.85880000  0.60330000  0.86910000  1.0 0.112491742
H  H93  1  0.01030000  0.26580000  0.86910000  1.0 0.112491742
H  H94  1  0.39670000  0.14120000  0.13090000  1.0 0.112491742
H  H95  1  0.89120000  0.26030000  0.24450000  1.0 0.112491742
H  H96  1  0.01580000  0.64670000  0.75550000  1.0 0.112491742
C  C1  1  0.16498000  0.06318000  0.00460000  1.0 0.5674087668
C  C2  1  0.05858000  0.16038000  0.99540000  1.0 0.5674087668
C  C3  1  0.81318000  0.30858000  0.39820000  1.0 0.5674087668
C  C4  1  0.91038000  0.41498000  0.60180000  1.0 0.5674087668
C  C5  1  0.69142000  0.18682000  0.60180000  1.0 0.5674087668
C  C6  1  0.58502000  0.08962000  0.39820000  1.0 0.5674087668
C  C7  1  0.83962000  0.94142000  0.00460000  1.0 0.5674087668
C  C8  1  0.93682000  0.83502000  0.99540000  1.0 0.5674087668
C  C9  1  0.20813000  0.94321000  0.01594000  1.0 0.0896911256
C  C10  1  0.92727000  0.19219000  0.98406000  1.0 0.0896911256
C  C11  1  0.69321000  0.17727000  0.23508000  1.0 0.0896911256
C  C12  1  0.94219000  0.45813000  0.76492000  1.0 0.0896911256
C  C13  1  0.82273000  0.30679000  0.76492000  1.0 0.0896911256
C  C14  1  0.54187000  0.05781000  0.23508000  1.0 0.0896911256
C  C15  1  0.80781000  0.07273000  0.01594000  1.0 0.0896911256
C  C16  1  0.05679000  0.79187000  0.98406000  1.0 0.0896911256
C  C17  1  0.16800000  0.92562000  0.94382000  1.0 -0.168442681
C  C18  1  0.98180000  0.22418000  0.05618000  1.0 -0.168442681
C  C19  1  0.67562000  0.23180000  0.25762000  1.0 -0.168442681
C  C20  1  0.97418000  0.41800000  0.74238000  1.0 -0.168442681
C  C21  1  0.76820000  0.32438000  0.74238000  1.0 -0.168442681
C  C22  1  0.58200000  0.02582000  0.25762000  1.0 -0.168442681
C  C23  1  0.77582000  0.01820000  0.94382000  1.0 -0.168442681
C  C24  1  0.07438000  0.83200000  0.05618000  1.0 -0.168442681
C  C25  1  0.15396000  0.96526000  0.94010000  1.0 -0.0607326485
C  C26  1  0.02516000  0.21386000  0.05990000  1.0 -0.0607326485
C  C27  1  0.71526000  0.27516000  0.31130000  1.0 -0.0607326485
C  C28  1  0.96386000  0.40396000  0.68870000  1.0 -0.0607326485
C  C29  1  0.72484000  0.28474000  0.68870000  1.0 -0.0607326485
C  C30  1  0.59604000  0.03614000  0.31130000  1.0 -0.0607326485
C  C31  1  0.78614000  0.97484000  0.94010000  1.0 -0.0607326485
C  C32  1  0.03474000  0.84604000  0.05990000  1.0 -0.0607326485
C  C33  1  0.18007000  0.02242000  0.00843000  1.0 -0.0799717598
C  C34  1  0.01399000  0.17164000  0.99157000  1.0 -0.0799717598
C  C35  1  0.77242000  0.26399000  0.34235000  1.0 -0.0799717598
C  C36  1  0.92164000  0.43007000  0.65765000  1.0 -0.0799717598
C  C37  1  0.73601000  0.22758000  0.65765000  1.0 -0.0799717598
C  C38  1  0.56993000  0.07836000  0.34235000  1.0 -0.0799717598
C  C39  1  0.82836000  0.98601000  0.00843000  1.0 -0.0799717598
C  C40  1  0.97758000  0.81993000  0.99157000  1.0 -0.0799717598
C  C41  1  0.22021000  0.04002000  0.08055000  1.0 -0.0698338614
C  C42  1  0.95947000  0.13966000  0.91945000  1.0 -0.0698338614
C  C43  1  0.79002000  0.20947000  0.31981000  1.0 -0.0698338614
C  C44  1  0.88966000  0.47021000  0.68019000  1.0 -0.0698338614
C  C45  1  0.79053000  0.20998000  0.68019000  1.0 -0.0698338614
C  C46  1  0.52979000  0.11034000  0.31981000  1.0 -0.0698338614
C  C47  1  0.86034000  0.04053000  0.08055000  1.0 -0.0698338614
C  C48  1  0.95998000  0.77979000  0.91945000  1.0 -0.0698338614
C  C49  1  0.23424000  0.00041000  0.08431000  1.0 -0.168442681
C  C50  1  0.91610000  0.14993000  0.91569000  1.0 -0.168442681
C  C51  1  0.75041000  0.16610000  0.26617000  1.0 -0.168442681
C  C52  1  0.89993000  0.48424000  0.73383000  1.0 -0.168442681
C  C53  1  0.83390000  0.24959000  0.73383000  1.0 -0.168442681
C  C54  1  0.51576000  0.10007000  0.26617000  1.0 -0.168442681
C  C55  1  0.85007000  0.08390000  0.08431000  1.0 -0.168442681
C  C56  1  0.99959000  0.76576000  0.91569000  1.0 -0.168442681
C  C57  1  0.29190000  0.86589000  0.08577000  1.0 0.0253233512
C  C58  1  0.78012000  0.20613000  0.91423000  1.0 0.0253233512
C  C59  1  0.61589000  0.03012000  0.07399000  1.0 0.0253233512
C  C60  1  0.95613000  0.54190000  0.92601000  1.0 0.0253233512
C  C61  1  0.96988000  0.38411000  0.92601000  1.0 0.0253233512
C  C62  1  0.45810000  0.04387000  0.07399000  1.0 0.0253233512
C  C63  1  0.79387000  0.21988000  0.08577000  1.0 0.0253233512
C  C64  1  0.13411000  0.70810000  0.91423000  1.0 0.0253233512
C  C65  1  0.34812000  0.86901000  0.14713000  1.0 0.0395230621
C  C66  1  0.72188000  0.20099000  0.85287000  1.0 0.0395230621
C  C67  1  0.61901000  0.97188000  0.02089000  1.0 0.0395230621
C  C68  1  0.95099000  0.59812000  0.97911000  1.0 0.0395230621
C  C69  1  0.02812000  0.38099000  0.97911000  1.0 0.0395230621
C  C70  1  0.40188000  0.04901000  0.02089000  1.0 0.0395230621
C  C71  1  0.79901000  0.27812000  0.14713000  1.0 0.0395230621
C  C72  1  0.13099000  0.65188000  0.85287000  1.0 0.0395230621
C  C73  1  0.36185000  0.82918000  0.15041000  1.0 -0.2781777247
C  C74  1  0.67877000  0.21144000  0.84959000  1.0 -0.2781777247
C  C75  1  0.57918000  0.92877000  0.96733000  1.0 -0.2781777247
C  C76  1  0.96144000  0.61185000  0.03267000  1.0 -0.2747189735
C  C77  1  0.07123000  0.42082000  0.03267000  1.0 -0.2781777247
C  C78  1  0.38815000  0.03856000  0.96733000  1.0 -0.2781777247
C  C79  1  0.78856000  0.32123000  0.15041000  1.0 -0.2781777247
C  C80  1  0.17082000  0.63815000  0.84959000  1.0 -0.2781777247
C  C81  1  0.31933000  0.78623000  0.09230000  1.0 0.2403242832
C  C82  1  0.69393000  0.22703000  0.90770000  1.0 0.2403242832
C  C83  1  0.53623000  0.94393000  0.96690000  1.0 0.2403242832
C  C84  1  0.97703000  0.56933000  0.03310000  1.0 0.2403242832
C  C85  1  0.05607000  0.46377000  0.03310000  1.0 0.2403242832
C  C86  1  0.43067000  0.02297000  0.96690000  1.0 0.2403242832
C  C87  1  0.77297000  0.30607000  0.09230000  1.0 0.2403242832
C  C88  1  0.21377000  0.68067000  0.90770000  1.0 0.2403242832
C  C89  1  0.26314000  0.78312000  0.03098000  1.0 -0.0607326485
C  C90  1  0.75214000  0.23216000  0.96902000  1.0 -0.0607326485
C  C91  1  0.53312000  0.00214000  0.01998000  1.0 -0.0607326485
C  C92  1  0.98216000  0.51314000  0.98002000  1.0 -0.0607326485
C  C93  1  0.99786000  0.46688000  0.98002000  1.0 -0.0607326485
C  C94  1  0.48686000  0.01784000  0.01998000  1.0 -0.0607326485
C  C95  1  0.76784000  0.24786000  0.03098000  1.0 -0.0607326485
C  C96  1  0.21688000  0.73686000  0.96902000  1.0 -0.0607326485
C  C97  1  0.24940000  0.82295000  0.02769000  1.0 0.0395230621
C  C98  1  0.79526000  0.22171000  0.97231000  1.0 0.0395230621
C  C99  1  0.57295000  0.04526000  0.07355000  1.0 0.0395230621
C  C100  1  0.97171000  0.49940000  0.92645000  1.0 0.0395230621
C  C101  1  0.95474000  0.42705000  0.92645000  1.0 0.0395230621
C  C102  1  0.50060000  0.02829000  0.07355000  1.0 0.0395230621
C  C103  1  0.77829000  0.20474000  0.02769000  1.0 0.0395230621
C  C104  1  0.17705000  0.75060000  0.97231000  1.0 0.0395230621
C  C105  1  0.27844000  0.90334000  0.07990000  1.0 -0.1943523356
C  C106  1  0.82344000  0.19854000  0.92010000  1.0 -0.1943523356
C  C107  1  0.65334000  0.07344000  0.12490000  1.0 -0.1943523356
C  C108  1  0.94854000  0.52844000  0.87510000  1.0 -0.1943523356
C  C109  1  0.92656000  0.34666000  0.87510000  1.0 -0.1943523356
C  C110  1  0.47156000  0.05146000  0.12490000  1.0 -0.1943523356
C  C111  1  0.80146000  0.17656000  0.07990000  1.0 -0.1943523356
C  C112  1  0.09666000  0.72156000  0.92010000  1.0 -0.1943523356
C  C113  1  0.22386000  0.90146000  0.02080000  1.0 0.0711878865
C  C114  1  0.88066000  0.20306000  0.97920000  1.0 0.0711878865
C  C115  1  0.65146000  0.13066000  0.17760000  1.0 0.0711878865
C  C116  1  0.95306000  0.47386000  0.82240000  1.0 0.0711878865
C  C117  1  0.86934000  0.34854000  0.82240000  1.0 0.0711878865
C  C118  1  0.52614000  0.04694000  0.17760000  1.0 0.0711878865
C  C119  1  0.79694000  0.11934000  0.02080000  1.0 0.0711878865
C  C120  1  0.09854000  0.77614000  0.97920000  1.0 0.0711878865
C  C121  1  0.18037000  0.85877000  0.96260000  1.0 -0.1509215122
C  C122  1  0.89617000  0.21777000  0.03740000  1.0 -0.1509215122
C  C123  1  0.60877000  0.14617000  0.17840000  1.0 -0.1509215122
C  C124  1  0.96777000  0.43037000  0.82160000  1.0 -0.1509215122
C  C125  1  0.85383000  0.39123000  0.82160000  1.0 -0.1509215122
C  C126  1  0.56963000  0.03223000  0.17840000  1.0 -0.1509215122
C  C127  1  0.78223000  0.10383000  0.96260000  1.0 -0.1509215122
C  C128  1  0.14123000  0.81963000  0.03740000  1.0 -0.1509215122
C  C129  1  0.19362000  0.82012000  0.96590000  1.0 -0.1430932504
C  C130  1  0.85422000  0.22772000  0.03410000  1.0 -0.1430932504
C  C131  1  0.57012000  0.10422000  0.12650000  1.0 -0.1430932504
C  C132  1  0.97772000  0.44362000  0.87350000  1.0 -0.1430932504
C  C133  1  0.89578000  0.42988000  0.87350000  1.0 -0.1430932504
C  C134  1  0.55638000  0.02228000  0.12650000  1.0 -0.1430932504
C  C135  1  0.77228000  0.14578000  0.96590000  1.0 -0.1430932504
C  C136  1  0.17988000  0.80638000  0.03410000  1.0 -0.1430932504
C  C137  1  0.39557000  0.91343000  0.21270000  1.0 0.0896911256
C  C138  1  0.70073000  0.18287000  0.78730000  1.0 0.0896911256
C  C139  1  0.66343000  0.95073000  0.01786000  1.0 0.0896911256
C  C140  1  0.93287000  0.64557000  0.98214000  1.0 0.0896911256
C  C141  1  0.04927000  0.33657000  0.98214000  1.0 0.0896911256
C  C142  1  0.35443000  0.06713000  0.01786000  1.0 0.0896911256
C  C143  1  0.81713000  0.29927000  0.21270000  1.0 0.0896911256
C  C144  1  0.08657000  0.60443000  0.78730000  1.0 0.0896911256
C  C145  1  0.44827000  0.89580000  0.23005000  1.0 -0.1618515456
C  C146  1  0.66575000  0.21822000  0.76995000  1.0 -0.1618515456
C  C147  1  0.64580000  0.91575000  0.94753000  1.0 -0.1618515456
C  C148  1  0.96822000  0.69827000  0.05247000  1.0 -0.1618515456
C  C149  1  0.08425000  0.35420000  0.05247000  1.0 -0.1618515456
C  C150  1  0.30173000  0.03178000  0.94753000  1.0 -0.1618515456
C  C151  1  0.78178000  0.33425000  0.23005000  1.0 -0.1618515456
C  C152  1  0.10420000  0.55173000  0.76995000  1.0 -0.1618515456
C  C153  1  0.49342000  0.93723000  0.29059000  1.0 -0.0698338614
C  C154  1  0.64664000  0.20283000  0.70941000  1.0 -0.0698338614
C  C155  1  0.68723000  0.89664000  0.94381000  1.0 -0.0698338614
C  C156  1  0.95283000  0.74342000  0.05619000  1.0 -0.0698338614
C  C157  1  0.10336000  0.31277000  0.05619000  1.0 -0.0698338614
C  C158  1  0.25658000  0.04717000  0.94381000  1.0 -0.0698338614
C  C159  1  0.79717000  0.35336000  0.29059000  1.0 -0.0698338614
C  C160  1  0.06277000  0.50658000  0.70941000  1.0 -0.0698338614
C  C161  1  0.48586000  0.99630000  0.33380000  1.0 -0.0607326485
C  C162  1  0.66250000  0.15206000  0.66620000  1.0 -0.0607326485
C  C163  1  0.74630000  0.91250000  0.01044000  1.0 -0.0607326485
C  C164  1  0.90206000  0.73586000  0.98956000  1.0 -0.0607326485
C  C165  1  0.08750000  0.25370000  0.98956000  1.0 -0.0607326485
C  C166  1  0.26414000  0.09794000  0.01044000  1.0 -0.0607326485
C  C167  1  0.84794000  0.33750000  0.33380000  1.0 -0.0607326485
C  C168  1  0.00370000  0.51414000  0.66620000  1.0 -0.0607326485
C  C169  1  0.43316000  0.01394000  0.31646000  1.0 -0.0799717598
C  C170  1  0.69748000  0.11670000  0.68354000  1.0 -0.0799717598
C  C171  1  0.76394000  0.94748000  0.08078000  1.0 -0.0799717598
C  C172  1  0.86670000  0.68316000  0.91922000  1.0 -0.0799717598
C  C173  1  0.05252000  0.23606000  0.91922000  1.0 -0.0799717598
C  C174  1  0.31684000  0.13330000  0.08078000  1.0 -0.0799717598
C  C175  1  0.88330000  0.30252000  0.31646000  1.0 -0.0799717598
C  C176  1  0.98606000  0.56684000  0.68354000  1.0 -0.0799717598
C  C177  1  0.38801000  0.97250000  0.25591000  1.0 -0.177016186
C  C178  1  0.71659000  0.13210000  0.74409000  1.0 -0.177016186
C  C179  1  0.72250000  0.96659000  0.08449000  1.0 -0.177016186
C  C180  1  0.88210000  0.63801000  0.91551000  1.0 -0.177016186
C  C181  1  0.03341000  0.27750000  0.91551000  1.0 -0.168442681
C  C182  1  0.36199000  0.11790000  0.08449000  1.0 -0.177016186
C  C183  1  0.86790000  0.28341000  0.25591000  1.0 -0.177016186
C  C184  1  0.02750000  0.61199000  0.74409000  1.0 -0.177016186
C  C185  1  0.53337000  0.03737000  0.39460000  1.0 0.5674087668
C  C186  1  0.64277000  0.13877000  0.60540000  1.0 0.5674087668
C  C187  1  0.78737000  0.89277000  0.00400000  1.0 0.5674087668
C  C188  1  0.88877000  0.78337000  0.99600000  1.0 0.5674087668
C  C189  1  0.10723000  0.21263000  0.99600000  1.0 0.5674087668
C  C190  1  0.21663000  0.11123000  0.00400000  1.0 0.5674087668
C  C191  1  0.86123000  0.35723000  0.39460000  1.0 0.5674087668
C  C192  1  0.96263000  0.46663000  0.60540000  1.0 0.5674087668
C  C193  1  0.38060000  0.66700000  0.08760000  1.0 -0.1943523356
C  C194  1  0.57940000  0.29300000  0.91240000  1.0 -0.177016186
C  C195  1  0.41700000  0.82940000  0.78640000  1.0 -0.168442681
C  C196  1  0.04300000  0.63060000  0.21360000  1.0 -0.177016186
C  C197  1  0.17060000  0.58300000  0.21360000  1.0 -0.177016186
C  C198  1  0.36940000  0.95700000  0.78640000  1.0 -0.177016186
C  C199  1  0.70700000  0.42060000  0.08760000  1.0 -0.177016186
C  C200  1  0.33300000  0.61940000  0.91240000  1.0 -0.168442681
C  C201  1  0.38860000  0.72760000  0.12860000  1.0 0.12766438
C  C202  1  0.59900000  0.26000000  0.87140000  1.0 0.12766438
C  C203  1  0.47760000  0.84900000  0.83900000  1.0 0.12766438
C  C204  1  0.01000000  0.63860000  0.16100000  1.0 0.12766438
C  C205  1  0.15100000  0.52240000  0.16100000  1.0 0.12766438
C  C206  1  0.36140000  0.99000000  0.83900000  1.0 0.12766438
C  C207  1  0.74000000  0.40100000  0.12860000  1.0 0.12766438
C  C208  1  0.27240000  0.61140000  0.87140000  1.0 0.12766438
C  C209  1  0.38750000  0.75760000  0.16190000  1.0 0.0614976569
C  C210  1  0.59570000  0.22560000  0.83810000  1.0 0.0711878865
C  C211  1  0.50760000  0.84570000  0.87010000  1.0 0.0711878865
C  C212  1  0.97560000  0.63750000  0.12990000  1.0 0.0614976569
C  C213  1  0.15430000  0.49240000  0.12990000  1.0 0.0711878865
C  C214  1  0.36250000  0.02440000  0.87010000  1.0 0.0711878865
C  C215  1  0.77440000  0.40430000  0.16190000  1.0 0.0711878865
C  C216  1  0.24240000  0.61250000  0.83810000  1.0 0.0711878865
C  C217  1  0.40090000  0.71150000  0.15940000  1.0 0.0236440601
C  C218  1  0.55210000  0.24150000  0.84060000  1.0 -0.0029905891
C  C219  1  0.46150000  0.80210000  0.81060000  1.0 -0.0029905891
C  C220  1  0.99150000  0.65090000  0.18940000  1.0 -0.0082514908
C  C221  1  0.19790000  0.53850000  0.18940000  1.0 -0.0082514908
C  C222  1  0.34910000  0.00850000  0.81060000  1.0 -0.0082514908
C  C223  1  0.75850000  0.44790000  0.15940000  1.0 -0.0029905891
C  C224  1  0.28850000  0.59910000  0.84060000  1.0 -0.0029905891
O  O1  1  0.12841000  0.04744000  0.94063000  1.0 -0.4949619805
O  O2  1  0.10681000  0.18778000  0.05937000  1.0 -0.495671842
O  O3  1  0.79744000  0.35681000  0.41903000  1.0 -0.495671842
O  O4  1  0.93778000  0.37841000  0.58097000  1.0 -0.495671842
O  O5  1  0.64319000  0.20256000  0.58097000  1.0 -0.495671842
O  O6  1  0.62159000  0.06222000  0.41903000  1.0 -0.495671842
O  O7  1  0.81222000  0.89319000  0.94063000  1.0 -0.4949619805
O  O8  1  0.95256000  0.87159000  0.05937000  1.0 -0.4949619805
O  O9  1  0.19114000  0.11367000  0.06741000  1.0 -0.5200232377
O  O10  1  0.04626000  0.12373000  0.93259000  1.0 -0.5200232377
O  O11  1  0.86367000  0.29626000  0.42253000  1.0 -0.5200232377
O  O12  1  0.87373000  0.44114000  0.57747000  1.0 -0.5200232377
O  O13  1  0.70374000  0.13633000  0.57747000  1.0 -0.5200232377
O  O14  1  0.55886000  0.12627000  0.42253000  1.0 -0.5200232377
O  O15  1  0.87627000  0.95374000  0.06741000  1.0 -0.5200232377
O  O16  1  0.88633000  0.80886000  0.93259000  1.0 -0.5200232377
O  O17  1  0.57995000  0.02083000  0.41278000  1.0 -0.4778752883
O  O18  1  0.60805000  0.16717000  0.58722000  1.0 -0.4778752883
O  O19  1  0.77083000  0.85805000  0.94088000  1.0 -0.4778752883
O  O20  1  0.91717000  0.82995000  0.05912000  1.0 -0.4778752883
O  O21  1  0.14195000  0.22917000  0.05912000  1.0 -0.4778752883
O  O22  1  0.17005000  0.08283000  0.94088000  1.0 -0.4778752883
O  O23  1  0.83283000  0.39195000  0.41278000  1.0 -0.4778752883
O  O24  1  0.97917000  0.42005000  0.58722000  1.0 -0.4778752883
O  O25  1  0.52218000  0.08985000  0.42673000  1.0 -0.527825508
O  O26  1  0.66312000  0.09545000  0.57327000  1.0 -0.527825508
O  O27  1  0.83985000  0.91312000  0.06767000  1.0 -0.527825508
O  O28  1  0.84545000  0.77218000  0.93233000  1.0 -0.527825508
O  O29  1  0.08688000  0.16015000  0.93233000  1.0 -0.527825508
O  O30  1  0.22782000  0.15455000  0.06767000  1.0 -0.527825508
O  O31  1  0.90455000  0.33688000  0.42673000  1.0 -0.527825508
O  O32  1  0.91015000  0.47782000  0.57327000  1.0 -0.527825508
O  O33  1  0.32973000  0.74533000  0.09040000  1.0 -0.1005164839
O  O34  1  0.65493000  0.23933000  0.90960000  1.0 -0.1005164839
O  O35  1  0.49533000  0.90493000  0.91560000  1.0 -0.1005164839
O  O36  1  0.98933000  0.57973000  0.08440000  1.0 -0.1005164839
O  O37  1  0.09507000  0.50467000  0.08440000  1.0 -0.1005164839
O  O38  1  0.42027000  0.01067000  0.91560000  1.0 -0.1005164839
O  O39  1  0.76067000  0.34507000  0.09040000  1.0 -0.1005164839
O  O40  1  0.25467000  0.67027000  0.90960000  1.0 -0.1005164839
