# DDEC6 charges by PACMAN v1.1 (https://github.com/mtap-research/PACMAN-charge/)
data_XOPJAO_ASR_pacman
_symmetry_space_group_name_H-M   'P 1'
_cell_length_a   12.99900000
_cell_length_b   6.71520000
_cell_length_c   16.54700000
_cell_angle_alpha   90.00000000
_cell_angle_beta   95.99900000
_cell_angle_gamma   90.00000000
_symmetry_Int_Tables_number   1
_chemical_formula_structural   CoH22C28(NO)4
_chemical_formula_sum   'Co2 H44 C56 N8 O8'
_cell_volume   1436.49231892
_cell_formula_units_Z   2
loop_
 _symmetry_equiv_pos_site_id
 _symmetry_equiv_pos_as_xyz
  1  'x, y, z'
loop_
 _atom_site_type_symbol
 _atom_site_label
 _atom_site_symmetry_multiplicity
 _atom_site_fract_x
 _atom_site_fract_y
 _atom_site_fract_z
 _atom_site_occupancy
 _atom_site_charge
Co  Co1  1  0.00000000  0.78235000  0.25000000  1.0 0.6194674929
Co  Co2  1  0.00000000  0.21765000  0.75000000  1.0 0.6194674929
H  H1  1  0.21270000  0.35300000  0.29460000  1.0 0.1191240639
H  H2  1  0.78730000  0.35300000  0.20540000  1.0 0.1191240639
H  H3  1  0.78730000  0.64700000  0.70540000  1.0 0.1191240639
H  H4  1  0.21270000  0.64700000  0.79460000  1.0 0.1191240639
H  H5  1  0.97580000  0.05920000  0.07730000  1.0 0.0972140838
H  H6  1  0.02420000  0.05920000  0.42270000  1.0 0.0972140838
H  H7  1  0.02420000  0.94080000  0.92270000  1.0 0.0972140838
H  H8  1  0.97580000  0.94080000  0.57730000  1.0 0.0972140838
H  H9  1  0.94980000  0.18560000  0.99810000  1.0 0.0972140838
H  H10  1  0.05020000  0.18560000  0.50190000  1.0 0.0972140838
H  H11  1  0.05020000  0.81440000  0.00190000  1.0 0.0972140838
H  H12  1  0.94980000  0.81440000  0.49810000  1.0 0.0972140838
H  H13  1  0.29470000  0.89690000  0.43930000  1.0 0.1092964756
H  H14  1  0.70530000  0.89690000  0.06070000  1.0 0.1092964756
H  H15  1  0.70530000  0.10310000  0.56070000  1.0 0.1092964756
H  H16  1  0.29470000  0.10310000  0.93930000  1.0 0.1092964756
H  H17  1  0.98020000  0.36870000  0.15130000  1.0 0.1191240639
H  H18  1  0.01980000  0.36870000  0.34870000  1.0 0.1191240639
H  H19  1  0.01980000  0.63130000  0.84870000  1.0 0.1191240639
H  H20  1  0.98020000  0.63130000  0.65130000  1.0 0.1191240639
H  H21  1  0.32840000  0.55120000  0.36830000  1.0 0.1191240639
H  H22  1  0.67160000  0.55120000  0.13170000  1.0 0.1191240639
H  H23  1  0.67160000  0.44880000  0.63170000  1.0 0.1191240639
H  H24  1  0.32840000  0.44880000  0.86830000  1.0 0.1191240639
H  H25  1  0.41790000  0.08990000  0.51260000  1.0 0.1092964756
H  H26  1  0.58210000  0.08990000  0.98740000  1.0 0.1092964756
H  H27  1  0.58210000  0.91010000  0.48740000  1.0 0.1092964756
H  H28  1  0.41790000  0.91010000  0.01260000  1.0 0.1092964756
H  H29  1  0.23810000  0.48940000  0.05850000  1.0 0.1191240639
H  H30  1  0.76190000  0.48940000  0.44150000  1.0 0.1191240639
H  H31  1  0.76190000  0.51060000  0.94150000  1.0 0.1191240639
H  H32  1  0.23810000  0.51060000  0.55850000  1.0 0.1191240639
H  H33  1  0.12320000  0.22000000  0.98580000  1.0 0.1092964756
H  H34  1  0.87680000  0.22000000  0.51420000  1.0 0.1092964756
H  H35  1  0.87680000  0.78000000  0.01420000  1.0 0.1092964756
H  H36  1  0.12320000  0.78000000  0.48580000  1.0 0.1092964756
H  H37  1  0.14930000  0.09310000  0.06460000  1.0 0.1092964756
H  H38  1  0.85070000  0.09310000  0.43540000  1.0 0.1092964756
H  H39  1  0.85070000  0.90690000  0.93540000  1.0 0.1092964756
H  H40  1  0.14930000  0.90690000  0.56460000  1.0 0.1092964756
H  H41  1  0.20510000  0.74490000  0.15470000  1.0 0.1250606884
H  H42  1  0.79490000  0.74490000  0.34530000  1.0 0.1250606884
H  H43  1  0.79490000  0.25510000  0.84530000  1.0 0.1250606884
H  H44  1  0.20510000  0.25510000  0.65470000  1.0 0.1250606884
C  C1  1  0.24060000  0.10350000  0.35900000  1.0 -0.0023819489
C  C2  1  0.75940000  0.10350000  0.14100000  1.0 -0.0023819489
C  C3  1  0.75940000  0.89650000  0.64100000  1.0 -0.0023819489
C  C4  1  0.24060000  0.89650000  0.85900000  1.0 -0.0023819489
C  C5  1  0.25330000  0.29960000  0.33900000  1.0 -0.0968755226
C  C6  1  0.74670000  0.29960000  0.16100000  1.0 -0.0968755226
C  C7  1  0.74670000  0.70040000  0.66100000  1.0 -0.0968755226
C  C8  1  0.25330000  0.70040000  0.83900000  1.0 -0.0968755226
C  C9  1  0.99910000  0.09250000  0.02510000  1.0 -0.1877638068
C  C10  1  0.00090000  0.09250000  0.47490000  1.0 -0.1877638068
C  C11  1  0.00090000  0.90750000  0.97490000  1.0 -0.1877638068
C  C12  1  0.99910000  0.90750000  0.52510000  1.0 -0.1877638068
C  C13  1  0.30270000  0.02920000  0.42440000  1.0 -0.1176556613
C  C14  1  0.69730000  0.02920000  0.07560000  1.0 -0.1176556613
C  C15  1  0.69730000  0.97080000  0.57560000  1.0 -0.1176556613
C  C16  1  0.30270000  0.97080000  0.92440000  1.0 -0.1176556613
C  C17  1  0.38840000  0.34330000  0.44710000  1.0 0.1092964756
C  C18  1  0.61160000  0.34330000  0.05290000  1.0 0.1092964756
C  C19  1  0.61160000  0.65670000  0.55290000  1.0 0.1092964756
C  C20  1  0.38840000  0.65670000  0.94710000  1.0 0.1092964756
C  C21  1  0.15870000  0.97380000  0.31230000  1.0 0.483181115
C  C22  1  0.84130000  0.97380000  0.18770000  1.0 0.483181115
C  C23  1  0.84130000  0.02620000  0.68770000  1.0 0.483181115
C  C24  1  0.15870000  0.02620000  0.81230000  1.0 0.483181115
C  C25  1  0.04000000  0.43480000  0.14030000  1.0 0.1092964756
C  C26  1  0.96000000  0.43480000  0.35970000  1.0 0.1092964756
C  C27  1  0.96000000  0.56520000  0.85970000  1.0 0.1092964756
C  C28  1  0.04000000  0.56520000  0.64030000  1.0 0.1092964756
C  C29  1  0.32370000  0.41770000  0.38240000  1.0 -0.1818141679
C  C30  1  0.67630000  0.41770000  0.11760000  1.0 -0.1818141679
C  C31  1  0.67630000  0.58230000  0.61760000  1.0 -0.1818141679
C  C32  1  0.32370000  0.58230000  0.88240000  1.0 -0.1818141679
C  C33  1  0.37660000  0.14430000  0.46880000  1.0 -0.2176195721
C  C34  1  0.62340000  0.14430000  0.03120000  1.0 -0.2176195721
C  C35  1  0.62340000  0.85570000  0.53120000  1.0 -0.2176195721
C  C36  1  0.37660000  0.85570000  0.96880000  1.0 -0.2176195721
C  C37  1  0.18150000  0.49610000  0.08850000  1.0 -0.0914638232
C  C38  1  0.81850000  0.49610000  0.41150000  1.0 -0.0914638232
C  C39  1  0.81850000  0.50390000  0.91150000  1.0 -0.0914638232
C  C40  1  0.18150000  0.50390000  0.58850000  1.0 -0.0914638232
C  C41  1  0.10050000  0.18800000  0.03830000  1.0 -0.1263802259
C  C42  1  0.89950000  0.18800000  0.46170000  1.0 -0.1263802259
C  C43  1  0.89950000  0.81200000  0.96170000  1.0 -0.1263802259
C  C44  1  0.10050000  0.81200000  0.53830000  1.0 -0.1263802259
C  C45  1  0.16200000  0.63650000  0.14160000  1.0 -0.0409250132
C  C46  1  0.83800000  0.63650000  0.35840000  1.0 -0.0409250132
C  C47  1  0.83800000  0.36350000  0.85840000  1.0 -0.0409250132
C  C48  1  0.16200000  0.36350000  0.64160000  1.0 -0.0409250132
C  C49  1  0.46320000  0.51700000  0.47470000  1.0 -0.0530186634
C  C50  1  0.53680000  0.51700000  0.02530000  1.0 -0.0530186634
C  C51  1  0.53680000  0.48300000  0.52530000  1.0 -0.0530186634
C  C52  1  0.46320000  0.48300000  0.97470000  1.0 -0.0530186634
C  C53  1  0.47990000  0.40300000  0.51010000  1.0 0.0022546506
C  C54  1  0.52010000  0.40300000  0.98990000  1.0 0.0022546506
C  C55  1  0.52010000  0.59700000  0.48990000  1.0 0.0022546506
C  C56  1  0.47990000  0.59700000  0.01010000  1.0 0.0022546506
N  N1  1  0.07160000  0.60310000  0.17460000  1.0 -0.3037103753
N  N2  1  0.92840000  0.60310000  0.32540000  1.0 -0.3037103753
N  N3  1  0.92840000  0.39690000  0.82540000  1.0 -0.3037103753
N  N4  1  0.07160000  0.39690000  0.67460000  1.0 -0.3037103753
N  N5  1  0.10410000  0.36820000  0.08700000  1.0 0.0492952612
N  N6  1  0.89590000  0.36820000  0.41300000  1.0 0.0492952612
N  N7  1  0.89590000  0.63180000  0.91300000  1.0 0.0492952612
N  N8  1  0.10410000  0.63180000  0.58700000  1.0 0.0492952612
O  O1  1  0.13840000  0.81600000  0.33880000  1.0 -0.438309979
O  O2  1  0.86160000  0.81600000  0.16120000  1.0 -0.438309979
O  O3  1  0.86160000  0.18400000  0.66120000  1.0 -0.438309979
O  O4  1  0.13840000  0.18400000  0.83880000  1.0 -0.438309979
O  O5  1  0.11310000  0.03330000  0.25120000  1.0 -0.438309979
O  O6  1  0.88690000  0.03330000  0.24880000  1.0 -0.438309979
O  O7  1  0.88690000  0.96670000  0.74880000  1.0 -0.438309979
O  O8  1  0.11310000  0.96670000  0.75120000  1.0 -0.438309979
