# DDEC6 charges by PACMAN v1.1 (https://github.com/mtap-research/PACMAN-charge/)
data_XOPKIX_ASR_pacman
_symmetry_space_group_name_H-M   'P 1'
_cell_length_a   13.63760000
_cell_length_b   13.63760000
_cell_length_c   6.20540000
_cell_angle_alpha   90.00000000
_cell_angle_beta   90.00000000
_cell_angle_gamma   90.00000000
_symmetry_Int_Tables_number   1
_chemical_formula_structural   AgH8C20(SN)4
_chemical_formula_sum   'Ag2 H16 C40 S8 N8'
_cell_volume   1154.10594363
_cell_formula_units_Z   2
loop_
 _symmetry_equiv_pos_site_id
 _symmetry_equiv_pos_as_xyz
  1  'x, y, z'
loop_
 _atom_site_type_symbol
 _atom_site_label
 _atom_site_symmetry_multiplicity
 _atom_site_fract_x
 _atom_site_fract_y
 _atom_site_fract_z
 _atom_site_occupancy
 _atom_site_charge
Ag  Ag1  1  0.50000000  0.50000000  0.50000000  1.0 0.499839427
Ag  Ag2  1  0.00000000  0.00000000  0.50000000  1.0 0.499839427
H  H1  1  0.18230000  0.54740000  0.08520000  1.0 0.1242908408
H  H2  1  0.04740000  0.31770000  0.08520000  1.0 0.1242908408
H  H3  1  0.95260000  0.68230000  0.08520000  1.0 0.1242908408
H  H4  1  0.81770000  0.45260000  0.08520000  1.0 0.1242908408
H  H5  1  0.31770000  0.95260000  0.91480000  1.0 0.1242908408
H  H6  1  0.45260000  0.18230000  0.91480000  1.0 0.1242908408
H  H7  1  0.54740000  0.81770000  0.91480000  1.0 0.1242908408
H  H8  1  0.68230000  0.04740000  0.91480000  1.0 0.1242908408
H  H9  1  0.12930000  0.63240000  0.41500000  1.0 0.127126189
H  H10  1  0.13240000  0.37070000  0.41500000  1.0 0.127126189
H  H11  1  0.86760000  0.62930000  0.41500000  1.0 0.127126189
H  H12  1  0.87070000  0.36760000  0.41500000  1.0 0.127126189
H  H13  1  0.37070000  0.86760000  0.58500000  1.0 0.127126189
H  H14  1  0.36760000  0.12930000  0.58500000  1.0 0.127126189
H  H15  1  0.63240000  0.87070000  0.58500000  1.0 0.127126189
H  H16  1  0.62930000  0.13240000  0.58500000  1.0 0.127126189
C  C1  1  0.30840000  0.63030000  0.08440000  1.0 -0.0601426922
C  C2  1  0.13030000  0.19160000  0.08440000  1.0 -0.0601426922
C  C3  1  0.86970000  0.80840000  0.08440000  1.0 -0.0601426922
C  C4  1  0.69160000  0.36970000  0.08440000  1.0 -0.0601426922
C  C5  1  0.19160000  0.86970000  0.91560000  1.0 -0.0601426922
C  C6  1  0.36970000  0.30840000  0.91560000  1.0 -0.0601426922
C  C7  1  0.63030000  0.69160000  0.91560000  1.0 -0.0601426922
C  C8  1  0.80840000  0.13030000  0.91560000  1.0 -0.0601426922
C  C9  1  0.21910000  0.59740000  0.15460000  1.0 -0.1346122007
C  C10  1  0.09740000  0.28090000  0.15460000  1.0 -0.1346122007
C  C11  1  0.90260000  0.71910000  0.15460000  1.0 -0.1346122007
C  C12  1  0.78090000  0.40260000  0.15460000  1.0 -0.1346122007
C  C13  1  0.28090000  0.90260000  0.84540000  1.0 -0.1346122007
C  C14  1  0.40260000  0.21910000  0.84540000  1.0 -0.1346122007
C  C15  1  0.59740000  0.78090000  0.84540000  1.0 -0.1346122007
C  C16  1  0.71910000  0.09740000  0.84540000  1.0 -0.1346122007
C  C17  1  0.18870000  0.64660000  0.34170000  1.0 -0.1720970794
C  C18  1  0.14660000  0.31130000  0.34170000  1.0 -0.1720970794
C  C19  1  0.85340000  0.68870000  0.34170000  1.0 -0.1720970794
C  C20  1  0.81130000  0.35340000  0.34170000  1.0 -0.1720970794
C  C21  1  0.31130000  0.85340000  0.65830000  1.0 -0.1720970794
C  C22  1  0.35340000  0.18870000  0.65830000  1.0 -0.1720970794
C  C23  1  0.64660000  0.81130000  0.65830000  1.0 -0.1720970794
C  C24  1  0.68870000  0.14660000  0.65830000  1.0 -0.1720970794
C  C25  1  0.25330000  0.71710000  0.40780000  1.0 0.0022533676
C  C26  1  0.21710000  0.24670000  0.40780000  1.0 0.0022533676
C  C27  1  0.78290000  0.75330000  0.40780000  1.0 0.0022533676
C  C28  1  0.74670000  0.28290000  0.40780000  1.0 0.0022533676
C  C29  1  0.24670000  0.78290000  0.59220000  1.0 0.0022533676
C  C30  1  0.28290000  0.25330000  0.59220000  1.0 0.0022533676
C  C31  1  0.71710000  0.74670000  0.59220000  1.0 0.0022533676
C  C32  1  0.75330000  0.21710000  0.59220000  1.0 0.0022533676
C  C33  1  0.36030000  0.59970000  0.89840000  1.0 0.281680258
C  C34  1  0.09970000  0.13970000  0.89840000  1.0 0.281680258
C  C35  1  0.90030000  0.86030000  0.89840000  1.0 0.281680258
C  C36  1  0.63970000  0.40030000  0.89840000  1.0 0.281680258
C  C37  1  0.13970000  0.90030000  0.10160000  1.0 0.281680258
C  C38  1  0.40030000  0.36030000  0.10160000  1.0 0.281680258
C  C39  1  0.59970000  0.63970000  0.10160000  1.0 0.281680258
C  C40  1  0.86030000  0.09970000  0.10160000  1.0 0.281680258
S  S1  1  0.35431000  0.72262000  0.24374000  1.0 0.1010111962
S  S2  1  0.22262000  0.14569000  0.24374000  1.0 0.1010111962
S  S3  1  0.77738000  0.85431000  0.24374000  1.0 0.1010111962
S  S4  1  0.64569000  0.27738000  0.24374000  1.0 0.1010111962
S  S5  1  0.14569000  0.77738000  0.75626000  1.0 0.1010111962
S  S6  1  0.27738000  0.35431000  0.75626000  1.0 0.1010111962
S  S7  1  0.72262000  0.64569000  0.75626000  1.0 0.1010111962
S  S8  1  0.85431000  0.22262000  0.75626000  1.0 0.1010111962
N  N1  1  0.40270000  0.57630000  0.74980000  1.0 -0.3944697361
N  N2  1  0.07630000  0.09730000  0.74980000  1.0 -0.3944697361
N  N3  1  0.92370000  0.90270000  0.74980000  1.0 -0.3944697361
N  N4  1  0.59730000  0.42370000  0.74980000  1.0 -0.3944697361
N  N5  1  0.09730000  0.92370000  0.25020000  1.0 -0.3944697361
N  N6  1  0.42370000  0.40270000  0.25020000  1.0 -0.3944697361
N  N7  1  0.57630000  0.59730000  0.25020000  1.0 -0.3944697361
N  N8  1  0.90270000  0.07630000  0.25020000  1.0 -0.3944697361
