# DDEC6 charges by PACMAN v1.1 (https://github.com/mtap-research/PACMAN-charge/)
data_XOPKOD_ASR_pacman
_symmetry_space_group_name_H-M   'P 1'
_cell_length_a   13.83400000
_cell_length_b   13.83400000
_cell_length_c   6.16200000
_cell_angle_alpha   90.00000000
_cell_angle_beta   90.00000000
_cell_angle_gamma   90.00000000
_symmetry_Int_Tables_number   1
_chemical_formula_structural   AgH8C20(SN)4
_chemical_formula_sum   'Ag2 H16 C40 S8 N8'
_cell_volume   1179.28082407
_cell_formula_units_Z   2
loop_
 _symmetry_equiv_pos_site_id
 _symmetry_equiv_pos_as_xyz
  1  'x, y, z'
loop_
 _atom_site_type_symbol
 _atom_site_label
 _atom_site_symmetry_multiplicity
 _atom_site_fract_x
 _atom_site_fract_y
 _atom_site_fract_z
 _atom_site_occupancy
 _atom_site_charge
Ag  Ag1  1  0.50000000  0.50000000  0.50000000  1.0 0.4985260601
Ag  Ag2  1  0.00000000  0.00000000  0.50000000  1.0 0.4985260601
H  H1  1  0.18880000  0.54210000  0.10170000  1.0 0.1286639135
H  H2  1  0.04210000  0.31120000  0.10170000  1.0 0.1286639135
H  H3  1  0.95790000  0.68880000  0.10170000  1.0 0.1286639135
H  H4  1  0.81120000  0.45790000  0.10170000  1.0 0.1286639135
H  H5  1  0.31120000  0.95790000  0.89830000  1.0 0.1286639135
H  H6  1  0.45790000  0.18880000  0.89830000  1.0 0.1286639135
H  H7  1  0.54210000  0.81120000  0.89830000  1.0 0.1286639135
H  H8  1  0.68880000  0.04210000  0.89830000  1.0 0.1286639135
H  H9  1  0.13510000  0.62980000  0.42320000  1.0 0.1286639135
H  H10  1  0.12980000  0.36490000  0.42320000  1.0 0.1286639135
H  H11  1  0.87020000  0.63510000  0.42320000  1.0 0.1286639135
H  H12  1  0.86490000  0.37020000  0.42320000  1.0 0.1286639135
H  H13  1  0.36490000  0.87020000  0.57680000  1.0 0.1286639135
H  H14  1  0.37020000  0.13510000  0.57680000  1.0 0.1286639135
H  H15  1  0.62980000  0.86490000  0.57680000  1.0 0.1286639135
H  H16  1  0.63510000  0.12980000  0.57680000  1.0 0.1286639135
C  C1  1  0.30880000  0.62797000  0.08620000  1.0 -0.0603402614
C  C2  1  0.12797000  0.19120000  0.08620000  1.0 -0.0603402614
C  C3  1  0.87203000  0.80880000  0.08620000  1.0 -0.0603402614
C  C4  1  0.69120000  0.37203000  0.08620000  1.0 -0.0603402614
C  C5  1  0.19120000  0.87203000  0.91380000  1.0 -0.0603402614
C  C6  1  0.37203000  0.30880000  0.91380000  1.0 -0.0603402614
C  C7  1  0.62797000  0.69120000  0.91380000  1.0 -0.0603402614
C  C8  1  0.80880000  0.12797000  0.91380000  1.0 -0.0603402614
C  C9  1  0.22269000  0.59311000  0.16390000  1.0 -0.1308492337
C  C10  1  0.09311000  0.27731000  0.16390000  1.0 -0.1308492337
C  C11  1  0.90689000  0.72269000  0.16390000  1.0 -0.1308492337
C  C12  1  0.77731000  0.40689000  0.16390000  1.0 -0.1308492337
C  C13  1  0.27731000  0.90689000  0.83610000  1.0 -0.1308492337
C  C14  1  0.40689000  0.22269000  0.83610000  1.0 -0.1308492337
C  C15  1  0.59311000  0.77731000  0.83610000  1.0 -0.1308492337
C  C16  1  0.72269000  0.09311000  0.83610000  1.0 -0.1308492337
C  C17  1  0.19188000  0.64397000  0.34910000  1.0 -0.1722547923
C  C18  1  0.14397000  0.30812000  0.34910000  1.0 -0.1722547923
C  C19  1  0.85603000  0.69188000  0.34910000  1.0 -0.1722547923
C  C20  1  0.80812000  0.35603000  0.34910000  1.0 -0.1722547923
C  C21  1  0.30812000  0.85603000  0.65090000  1.0 -0.1722547923
C  C22  1  0.35603000  0.19188000  0.65090000  1.0 -0.1722547923
C  C23  1  0.64397000  0.80812000  0.65090000  1.0 -0.1722547923
C  C24  1  0.69188000  0.14397000  0.65090000  1.0 -0.1722547923
C  C25  1  0.25366000  0.71636000  0.40930000  1.0 0.0011582543
C  C26  1  0.21636000  0.24634000  0.40930000  1.0 0.0011582543
C  C27  1  0.78364000  0.75366000  0.40930000  1.0 0.0011582543
C  C28  1  0.74634000  0.28364000  0.40930000  1.0 0.0011582543
C  C29  1  0.24634000  0.78364000  0.59070000  1.0 0.0011582543
C  C30  1  0.28364000  0.25366000  0.59070000  1.0 0.0011582543
C  C31  1  0.71636000  0.74634000  0.59070000  1.0 0.0011582543
C  C32  1  0.75366000  0.21636000  0.59070000  1.0 0.0011582543
C  C33  1  0.35950000  0.59690000  0.89860000  1.0 0.2834462162
C  C34  1  0.09690000  0.14050000  0.89860000  1.0 0.2834462162
C  C35  1  0.90310000  0.85950000  0.89860000  1.0 0.2834462162
C  C36  1  0.64050000  0.40310000  0.89860000  1.0 0.2834462162
C  C37  1  0.14050000  0.90310000  0.10140000  1.0 0.2834462162
C  C38  1  0.40310000  0.35950000  0.10140000  1.0 0.2834462162
C  C39  1  0.59690000  0.64050000  0.10140000  1.0 0.2834462162
C  C40  1  0.85950000  0.09690000  0.10140000  1.0 0.2834462162
S  S1  1  0.35196000  0.72298000  0.23856000  1.0 0.0931463755
S  S2  1  0.22298000  0.14804000  0.23856000  1.0 0.0931463755
S  S3  1  0.77702000  0.85196000  0.23856000  1.0 0.0931463755
S  S4  1  0.64804000  0.27702000  0.23856000  1.0 0.0931463755
S  S5  1  0.14804000  0.77702000  0.76144000  1.0 0.0931463755
S  S6  1  0.27702000  0.35196000  0.76144000  1.0 0.0931463755
S  S7  1  0.72298000  0.64804000  0.76144000  1.0 0.0931463755
S  S8  1  0.85196000  0.22298000  0.76144000  1.0 0.0931463755
N  N1  1  0.40123000  0.57319000  0.74730000  1.0 -0.3962659006
N  N2  1  0.07319000  0.09877000  0.74730000  1.0 -0.3962659006
N  N3  1  0.92681000  0.90123000  0.74730000  1.0 -0.3962659006
N  N4  1  0.59877000  0.42681000  0.74730000  1.0 -0.3962659006
N  N5  1  0.09877000  0.92681000  0.25270000  1.0 -0.3962659006
N  N6  1  0.42681000  0.40123000  0.25270000  1.0 -0.3962659006
N  N7  1  0.57319000  0.59877000  0.25270000  1.0 -0.3962659006
N  N8  1  0.90123000  0.07319000  0.25270000  1.0 -0.3962659006
