# DDEC6 charges by PACMAN v1.1 (https://github.com/mtap-research/PACMAN-charge/)
data_XOPLOE_ASR_pacman
_symmetry_space_group_name_H-M   'P 1'
_cell_length_a   17.41690000
_cell_length_b   17.41690000
_cell_length_c   20.92000000
_cell_angle_alpha   59.85790000
_cell_angle_beta   120.14200000
_cell_angle_gamma   124.99700000
_symmetry_Int_Tables_number   1
_chemical_formula_structural   CuH14(C8O3)2
_chemical_formula_sum   'Cu8 H112 C128 O48'
_cell_volume   4285.30820003
_cell_formula_units_Z   8
loop_
 _symmetry_equiv_pos_site_id
 _symmetry_equiv_pos_as_xyz
  1  'x, y, z'
loop_
 _atom_site_type_symbol
 _atom_site_label
 _atom_site_symmetry_multiplicity
 _atom_site_fract_x
 _atom_site_fract_y
 _atom_site_fract_z
 _atom_site_occupancy
 _atom_site_charge
Cu  Cu1  1  0.48330000  0.50924000  0.04978000  1.0 0.8189016709
Cu  Cu2  1  0.50924000  0.48330000  0.45022000  1.0 0.8189016709
Cu  Cu3  1  0.51670000  0.49076000  0.95022000  1.0 0.8189016709
Cu  Cu4  1  0.49076000  0.51670000  0.54978000  1.0 0.8189016709
Cu  Cu5  1  0.54320000  0.93988000  0.54756000  1.0 0.7554344514
Cu  Cu6  1  0.93988000  0.54320000  0.95244000  1.0 0.7554344514
Cu  Cu7  1  0.45680000  0.06012000  0.45244000  1.0 0.7554344514
Cu  Cu8  1  0.06012000  0.45680000  0.04756000  1.0 0.7554344514
H  H1  1  0.18270000  0.47370000  0.92290000  1.0 0.1189329869
H  H2  1  0.47370000  0.18270000  0.57710000  1.0 0.1189329869
H  H3  1  0.81730000  0.52630000  0.07710000  1.0 0.1189329869
H  H4  1  0.52630000  0.81730000  0.42290000  1.0 0.1189329869
H  H5  1  0.02590000  0.45370000  0.83890000  1.0 0.1398508603
H  H6  1  0.45370000  0.02590000  0.66110000  1.0 0.1398508603
H  H7  1  0.97410000  0.54630000  0.16110000  1.0 0.1398508603
H  H8  1  0.54630000  0.97410000  0.33890000  1.0 0.1398508603
H  H9  1  0.07150000  0.40590000  0.69480000  1.0 0.1267892214
H  H10  1  0.40590000  0.07150000  0.80520000  1.0 0.1267892214
H  H11  1  0.92850000  0.59410000  0.30520000  1.0 0.1267892214
H  H12  1  0.59410000  0.92850000  0.19480000  1.0 0.1267892214
H  H13  1  0.23330000  0.43070000  0.77730000  1.0 0.1189329869
H  H14  1  0.43070000  0.23330000  0.72270000  1.0 0.1189329869
H  H15  1  0.76670000  0.56930000  0.22270000  1.0 0.1189329869
H  H16  1  0.56930000  0.76670000  0.27730000  1.0 0.1189329869
H  H17  1  0.78640000  0.42040000  0.61310000  1.0 0.1189329869
H  H18  1  0.42040000  0.78640000  0.88690000  1.0 0.1189329869
H  H19  1  0.21360000  0.57960000  0.38690000  1.0 0.1189329869
H  H20  1  0.57960000  0.21360000  0.11310000  1.0 0.1189329869
H  H21  1  0.65430000  0.29910000  0.55410000  1.0 0.1189329869
H  H22  1  0.29910000  0.65430000  0.94590000  1.0 0.1189329869
H  H23  1  0.34570000  0.70090000  0.44590000  1.0 0.1189329869
H  H24  1  0.70090000  0.34570000  0.05410000  1.0 0.1189329869
H  H25  1  0.80270000  0.13010000  0.68250000  1.0 0.1189329869
H  H26  1  0.13010000  0.80270000  0.81750000  1.0 0.1189329869
H  H27  1  0.19730000  0.86990000  0.31750000  1.0 0.1189329869
H  H28  1  0.86990000  0.19730000  0.18250000  1.0 0.1189329869
H  H29  1  0.93350000  0.25270000  0.73980000  1.0 0.1189329869
H  H30  1  0.25270000  0.93350000  0.76020000  1.0 0.1189329869
H  H31  1  0.06650000  0.74730000  0.26020000  1.0 0.1189329869
H  H32  1  0.74730000  0.06650000  0.23980000  1.0 0.1189329869
H  H33  1  0.38150000  0.17470000  0.01770000  1.0 0.1189329869
H  H34  1  0.17470000  0.38150000  0.48230000  1.0 0.1189329869
H  H35  1  0.61850000  0.82530000  0.98230000  1.0 0.1189329869
H  H36  1  0.82530000  0.61850000  0.51770000  1.0 0.1189329869
H  H37  1  0.33280000  0.00760000  0.07780000  1.0 0.1267892214
H  H38  1  0.00760000  0.33280000  0.42220000  1.0 0.1267892214
H  H39  1  0.66720000  0.99240000  0.92220000  1.0 0.1267892214
H  H40  1  0.99240000  0.66720000  0.57780000  1.0 0.1267892214
H  H41  1  0.37030000  0.04190000  0.27120000  1.0 0.1398508603
H  H42  1  0.04190000  0.37030000  0.22880000  1.0 0.1398508603
H  H43  1  0.62970000  0.95810000  0.72880000  1.0 0.1398508603
H  H44  1  0.95810000  0.62970000  0.77120000  1.0 0.1398508603
H  H45  1  0.42160000  0.21020000  0.21040000  1.0 0.1189329869
H  H46  1  0.21020000  0.42160000  0.28960000  1.0 0.1189329869
H  H47  1  0.57840000  0.78980000  0.78960000  1.0 0.1189329869
H  H48  1  0.78980000  0.57840000  0.71040000  1.0 0.1189329869
H  H49  1  0.16200000  0.88660000  0.10970000  1.0 0.1267892214
H  H50  1  0.88660000  0.16200000  0.39030000  1.0 0.1267892214
H  H51  1  0.83800000  0.11340000  0.89030000  1.0 0.1267892214
H  H52  1  0.11340000  0.83800000  0.60970000  1.0 0.1267892214
H  H53  1  0.06930000  0.76050000  0.05480000  1.0 0.1189329869
H  H54  1  0.76050000  0.06930000  0.44520000  1.0 0.1189329869
H  H55  1  0.93070000  0.23950000  0.94520000  1.0 0.1189329869
H  H56  1  0.23950000  0.93070000  0.55480000  1.0 0.1189329869
H  H57  1  0.25540000  0.63620000  0.20640000  1.0 0.1189329869
H  H58  1  0.63620000  0.25540000  0.29360000  1.0 0.1189329869
H  H59  1  0.74460000  0.36380000  0.79360000  1.0 0.1189329869
H  H60  1  0.36380000  0.74460000  0.70640000  1.0 0.1189329869
H  H61  1  0.35800000  0.76860000  0.25780000  1.0 0.1267892214
H  H62  1  0.76860000  0.35800000  0.24220000  1.0 0.1267892214
H  H63  1  0.64200000  0.23140000  0.74220000  1.0 0.1267892214
H  H64  1  0.23140000  0.64200000  0.75780000  1.0 0.1267892214
H  H65  1  0.58960000  0.78920000  0.66040000  1.0 0.2384778713
H  H66  1  0.78920000  0.58960000  0.83960000  1.0 0.2384778713
H  H67  1  0.41040000  0.21080000  0.33960000  1.0 0.2384778713
H  H68  1  0.21080000  0.41040000  0.16040000  1.0 0.2384778713
H  H69  1  0.76890000  0.89370000  0.66450000  1.0 0.0478714144
H  H70  1  0.89370000  0.76890000  0.83550000  1.0 0.0478714144
H  H71  1  0.23110000  0.10630000  0.33550000  1.0 0.0478714144
H  H72  1  0.10630000  0.23110000  0.16450000  1.0 0.0478714144
H  H73  1  0.72900000  0.92400000  0.57270000  1.0 0.1004622204
H  H74  1  0.92400000  0.72900000  0.92730000  1.0 0.1004622204
H  H75  1  0.27100000  0.07600000  0.42730000  1.0 0.1004622204
H  H76  1  0.07600000  0.27100000  0.07270000  1.0 0.1004622204
H  H77  1  0.69750000  0.89090000  0.63550000  1.0 0.1578844318
H  H78  1  0.89090000  0.69750000  0.86450000  1.0 0.1578844318
H  H79  1  0.30250000  0.10910000  0.36450000  1.0 0.1578844318
H  H80  1  0.10910000  0.30250000  0.13550000  1.0 0.1578844318
H  H81  1  0.55230000  0.72190000  0.61180000  1.0 0.0764939169
H  H82  1  0.72190000  0.55230000  0.88820000  1.0 0.0764939169
H  H83  1  0.44770000  0.27810000  0.38820000  1.0 0.0764939169
H  H84  1  0.27810000  0.44770000  0.11180000  1.0 0.0764939169
H  H85  1  0.58900000  0.78500000  0.53680000  1.0 0.0652410442
H  H86  1  0.78500000  0.58900000  0.96320000  1.0 0.0652410442
H  H87  1  0.41100000  0.21500000  0.46320000  1.0 0.0652410442
H  H88  1  0.21500000  0.41100000  0.03680000  1.0 0.0652410442
H  H89  1  0.66610000  0.68170000  0.62580000  1.0 0.1070712338
H  H90  1  0.68170000  0.66610000  0.87420000  1.0 0.1070712338
H  H91  1  0.33390000  0.31830000  0.37420000  1.0 0.1070712338
H  H92  1  0.31830000  0.33390000  0.12580000  1.0 0.1070712338
H  H93  1  0.74560000  0.79420000  0.61320000  1.0 0.0619249553
H  H94  1  0.79420000  0.74560000  0.88680000  1.0 0.0619249553
H  H95  1  0.25440000  0.20580000  0.38680000  1.0 0.0619249553
H  H96  1  0.20580000  0.25440000  0.11320000  1.0 0.0619249553
H  H97  1  0.71100000  0.73400000  0.68930000  1.0 0.0864205862
H  H98  1  0.73400000  0.71100000  0.81070000  1.0 0.0864205862
H  H99  1  0.28900000  0.26600000  0.31070000  1.0 0.0864205862
H  H100  1  0.26600000  0.28900000  0.18930000  1.0 0.0864205862
H  H101  1  0.79890000  0.84170000  0.62160000  1.0 0.1004622204
H  H102  1  0.84170000  0.79890000  0.87840000  1.0 0.1004622204
H  H103  1  0.20110000  0.15830000  0.37840000  1.0 0.1004622204
H  H104  1  0.15830000  0.20110000  0.12160000  1.0 0.1004622204
H  H105  1  0.72090000  0.75590000  0.66810000  1.0 0.0619249553
H  H106  1  0.75590000  0.72090000  0.83190000  1.0 0.0619249553
H  H107  1  0.27910000  0.24410000  0.33190000  1.0 0.0619249553
H  H108  1  0.24410000  0.27910000  0.16810000  1.0 0.0619249553
H  H109  1  0.68550000  0.79010000  0.57530000  1.0 0.0619249553
H  H110  1  0.79010000  0.68550000  0.92470000  1.0 0.0619249553
H  H111  1  0.31450000  0.20990000  0.42470000  1.0 0.0619249553
H  H112  1  0.20990000  0.31450000  0.07530000  1.0 0.0619249553
C  C1  1  0.32720000  0.47260000  0.90980000  1.0 0.5487847904
C  C2  1  0.47260000  0.32720000  0.59020000  1.0 0.5487847904
C  C3  1  0.67280000  0.52740000  0.09020000  1.0 0.5487847904
C  C4  1  0.52740000  0.67280000  0.40980000  1.0 0.5487847904
C  C5  1  0.22510000  0.45510000  0.85880000  1.0 -0.0507946202
C  C6  1  0.45510000  0.22510000  0.64120000  1.0 -0.0507946202
C  C7  1  0.77490000  0.54490000  0.14120000  1.0 -0.0507946202
C  C8  1  0.54490000  0.77490000  0.35880000  1.0 -0.0507946202
C  C9  1  0.16140000  0.46100000  0.87610000  1.0 -0.0880750047
C  C10  1  0.46100000  0.16140000  0.62390000  1.0 -0.0880750047
C  C11  1  0.83860000  0.53900000  0.12390000  1.0 -0.0880750047
C  C12  1  0.53900000  0.83860000  0.37610000  1.0 -0.0880750047
C  C13  1  0.06810000  0.44870000  0.82650000  1.0 -0.1911036839
C  C14  1  0.44870000  0.06810000  0.67350000  1.0 -0.1911036839
C  C15  1  0.93190000  0.55130000  0.17350000  1.0 -0.1911036839
C  C16  1  0.55130000  0.93190000  0.32650000  1.0 -0.1911036839
C  C17  1  0.03570000  0.42930000  0.75900000  1.0 0.2384778713
C  C18  1  0.42930000  0.03570000  0.74100000  1.0 0.2384778713
C  C19  1  0.96430000  0.57070000  0.24100000  1.0 0.2384778713
C  C20  1  0.57070000  0.96430000  0.25900000  1.0 0.2384778713
C  C21  1  0.09500000  0.42100000  0.74090000  1.0 -0.2381938239
C  C22  1  0.42100000  0.09500000  0.75910000  1.0 -0.2381938239
C  C23  1  0.90500000  0.57900000  0.25910000  1.0 -0.2381938239
C  C24  1  0.57900000  0.90500000  0.24090000  1.0 -0.2381938239
C  C25  1  0.19140000  0.43500000  0.79050000  1.0 -0.0880750047
C  C26  1  0.43500000  0.19140000  0.70950000  1.0 -0.0880750047
C  C27  1  0.80860000  0.56500000  0.20950000  1.0 -0.0880750047
C  C28  1  0.56500000  0.80860000  0.29050000  1.0 -0.0880750047
C  C29  1  0.87270000  0.34870000  0.67850000  1.0 0.2384778713
C  C30  1  0.34870000  0.87270000  0.82150000  1.0 0.2384778713
C  C31  1  0.12730000  0.65130000  0.32150000  1.0 0.2384778713
C  C32  1  0.65130000  0.12730000  0.17850000  1.0 0.2384778713
C  C33  1  0.79000000  0.36160000  0.62610000  1.0 -0.2095371186
C  C34  1  0.36160000  0.79000000  0.87390000  1.0 -0.2095371186
C  C35  1  0.21000000  0.63840000  0.37390000  1.0 -0.2095371186
C  C36  1  0.63840000  0.21000000  0.12610000  1.0 -0.2095371186
C  C37  1  0.71100000  0.28920000  0.59170000  1.0 -0.0815136611
C  C38  1  0.28920000  0.71100000  0.90830000  1.0 -0.0815136611
C  C39  1  0.28900000  0.71080000  0.40830000  1.0 -0.0815136611
C  C40  1  0.71080000  0.28900000  0.09170000  1.0 -0.0815136611
C  C41  1  0.71550000  0.20170000  0.61260000  1.0 -0.0258146279
C  C42  1  0.20170000  0.71550000  0.88740000  1.0 -0.0258146279
C  C43  1  0.28450000  0.79830000  0.38740000  1.0 -0.0258146279
C  C44  1  0.79830000  0.28450000  0.11260000  1.0 -0.0258146279
C  C45  1  0.79900000  0.18940000  0.66760000  1.0 -0.0815136611
C  C46  1  0.18940000  0.79900000  0.83240000  1.0 -0.0815136611
C  C47  1  0.20100000  0.81060000  0.33240000  1.0 -0.0815136611
C  C48  1  0.81060000  0.20100000  0.16760000  1.0 -0.0815136611
C  C49  1  0.87700000  0.26240000  0.70120000  1.0 -0.2282651832
C  C50  1  0.26240000  0.87700000  0.79880000  1.0 -0.2381938239
C  C51  1  0.12300000  0.73760000  0.29880000  1.0 -0.2381938239
C  C52  1  0.73760000  0.12300000  0.20120000  1.0 -0.2282651832
C  C53  1  0.63030000  0.12390000  0.57260000  1.0 0.5487847904
C  C54  1  0.12390000  0.63030000  0.92740000  1.0 0.5487847904
C  C55  1  0.36970000  0.87610000  0.42740000  1.0 0.5487847904
C  C56  1  0.87610000  0.36970000  0.07260000  1.0 0.5487847904
C  C57  1  0.40720000  0.20980000  0.10820000  1.0 -0.0507946202
C  C58  1  0.20980000  0.40720000  0.39180000  1.0 -0.0507946202
C  C59  1  0.59280000  0.79020000  0.89180000  1.0 -0.0507946202
C  C60  1  0.79020000  0.59280000  0.60820000  1.0 -0.0507946202
C  C61  1  0.38020000  0.14760000  0.06970000  1.0 -0.0880750047
C  C62  1  0.14760000  0.38020000  0.43030000  1.0 -0.0880750047
C  C63  1  0.61980000  0.85240000  0.93030000  1.0 -0.0880750047
C  C64  1  0.85240000  0.61980000  0.56970000  1.0 -0.0880750047
C  C65  1  0.35200000  0.04900000  0.10500000  1.0 -0.2242934948
C  C66  1  0.04900000  0.35200000  0.39500000  1.0 -0.2242934948
C  C67  1  0.64800000  0.95100000  0.89500000  1.0 -0.2242934948
C  C68  1  0.95100000  0.64800000  0.60500000  1.0 -0.2242934948
C  C69  1  0.35190000  0.00970000  0.18250000  1.0 0.2604524324
C  C70  1  0.00970000  0.35190000  0.31750000  1.0 0.2604524324
C  C71  1  0.64810000  0.99030000  0.81750000  1.0 0.2604524324
C  C72  1  0.99030000  0.64810000  0.68250000  1.0 0.2604524324
C  C73  1  0.37450000  0.06930000  0.22010000  1.0 -0.2095371186
C  C74  1  0.06930000  0.37450000  0.27990000  1.0 -0.2095371186
C  C75  1  0.62550000  0.93070000  0.77990000  1.0 -0.2095371186
C  C76  1  0.93070000  0.62550000  0.72010000  1.0 -0.2095371186
C  C77  1  0.40370000  0.16890000  0.18340000  1.0 -0.1086725185
C  C78  1  0.16890000  0.40370000  0.31660000  1.0 -0.1086725185
C  C79  1  0.59630000  0.83110000  0.81660000  1.0 -0.1086725185
C  C80  1  0.83110000  0.59630000  0.68340000  1.0 -0.1086725185
C  C81  1  0.27020000  0.84040000  0.18750000  1.0 0.2464790473
C  C82  1  0.84040000  0.27020000  0.31250000  1.0 0.2464790473
C  C83  1  0.72980000  0.15960000  0.81250000  1.0 0.2464790473
C  C84  1  0.15960000  0.72980000  0.68750000  1.0 0.2464790473
C  C85  1  0.18280000  0.83720000  0.12810000  1.0 -0.2282651832
C  C86  1  0.83720000  0.18280000  0.37190000  1.0 -0.2282651832
C  C87  1  0.81720000  0.16280000  0.87190000  1.0 -0.2282651832
C  C88  1  0.16280000  0.81720000  0.62810000  1.0 -0.2282651832
C  C89  1  0.12760000  0.76180000  0.09680000  1.0 -0.0880750047
C  C90  1  0.76180000  0.12760000  0.40320000  1.0 -0.0880750047
C  C91  1  0.87240000  0.23820000  0.90320000  1.0 -0.0880750047
C  C92  1  0.23820000  0.87240000  0.59680000  1.0 -0.0880750047
C  C93  1  0.15460000  0.68660000  0.12470000  1.0 -0.0407384412
C  C94  1  0.68660000  0.15460000  0.37530000  1.0 -0.0407384412
C  C95  1  0.84540000  0.31340000  0.87530000  1.0 -0.0407384412
C  C96  1  0.31340000  0.84540000  0.62470000  1.0 -0.0407384412
C  C97  1  0.23810000  0.68870000  0.18520000  1.0 -0.0815136611
C  C98  1  0.68870000  0.23810000  0.31480000  1.0 -0.0815136611
C  C99  1  0.76190000  0.31130000  0.81480000  1.0 -0.0815136611
C  C100  1  0.31130000  0.76190000  0.68520000  1.0 -0.0815136611
C  C101  1  0.29860000  0.76660000  0.21690000  1.0 -0.2015864472
C  C102  1  0.76660000  0.29860000  0.28310000  1.0 -0.2015864472
C  C103  1  0.70140000  0.23340000  0.78310000  1.0 -0.2015864472
C  C104  1  0.23340000  0.70140000  0.71690000  1.0 -0.2015864472
C  C105  1  0.09510000  0.61010000  0.08450000  1.0 0.5487847904
C  C106  1  0.61010000  0.09510000  0.41550000  1.0 0.5487847904
C  C107  1  0.90490000  0.38990000  0.91550000  1.0 0.5487847904
C  C108  1  0.38990000  0.90490000  0.58450000  1.0 0.5487847904
C  C109  1  0.44140000  0.31780000  0.06930000  1.0 0.5487847904
C  C110  1  0.31780000  0.44140000  0.43070000  1.0 0.5487847904
C  C111  1  0.55860000  0.68220000  0.93070000  1.0 0.5487847904
C  C112  1  0.68220000  0.55860000  0.56930000  1.0 0.5487847904
C  C113  1  0.68980000  0.74360000  0.63380000  1.0 -0.2381938239
C  C114  1  0.74360000  0.68980000  0.86620000  1.0 -0.2381938239
C  C115  1  0.31020000  0.25640000  0.36620000  1.0 -0.2381938239
C  C116  1  0.25640000  0.31020000  0.13380000  1.0 -0.2381938239
C  C117  1  0.71690000  0.86850000  0.62030000  1.0 0.0302507093
C  C118  1  0.86850000  0.71690000  0.87970000  1.0 0.0302507093
C  C119  1  0.28310000  0.13150000  0.37970000  1.0 0.0302507093
C  C120  1  0.13150000  0.28310000  0.12030000  1.0 0.0302507093
C  C121  1  0.60940000  0.77540000  0.59280000  1.0 0.0478714144
C  C122  1  0.77540000  0.60940000  0.90720000  1.0 0.0478714144
C  C123  1  0.39060000  0.22460000  0.40720000  1.0 0.0478714144
C  C124  1  0.22460000  0.39060000  0.09280000  1.0 0.0478714144
C  C125  1  0.73100000  0.81220000  0.62140000  1.0 -0.2015864472
C  C126  1  0.81220000  0.73100000  0.87860000  1.0 -0.2015864472
C  C127  1  0.26900000  0.18780000  0.37860000  1.0 -0.2095371186
C  C128  1  0.18780000  0.26900000  0.12140000  1.0 -0.2095371186
O  O1  1  0.35280000  0.48600000  0.97260000  1.0 -0.5394009223
O  O2  1  0.48600000  0.35280000  0.52740000  1.0 -0.5394009223
O  O3  1  0.64720000  0.51400000  0.02740000  1.0 -0.5394009223
O  O4  1  0.51400000  0.64720000  0.47260000  1.0 -0.5394009223
O  O5  1  0.38089000  0.47071000  0.88770000  1.0 -0.5137890747
O  O6  1  0.47071000  0.38089000  0.61230000  1.0 -0.5137890747
O  O7  1  0.61911000  0.52929000  0.11230000  1.0 -0.5137890747
O  O8  1  0.52929000  0.61911000  0.38770000  1.0 -0.5137890747
O  O9  1  0.94390000  0.42510000  0.71060000  1.0 -0.2242934948
O  O10  1  0.42510000  0.94390000  0.78940000  1.0 -0.2242934948
O  O11  1  0.05610000  0.57490000  0.28940000  1.0 -0.2242934948
O  O12  1  0.57490000  0.05610000  0.21060000  1.0 -0.2242934948
O  O13  1  0.63590000  0.04430000  0.59840000  1.0 -0.5513782298
O  O14  1  0.04430000  0.63590000  0.90160000  1.0 -0.5513782298
O  O15  1  0.36410000  0.95570000  0.40160000  1.0 -0.5513782298
O  O16  1  0.95570000  0.36410000  0.09840000  1.0 -0.5513782298
O  O17  1  0.56230000  0.14670000  0.51730000  1.0 -0.5513782298
O  O18  1  0.14670000  0.56230000  0.98270000  1.0 -0.5513782298
O  O19  1  0.43770000  0.85330000  0.48270000  1.0 -0.5513782298
O  O20  1  0.85330000  0.43770000  0.01730000  1.0 -0.5513782298
O  O21  1  0.44130000  0.36690000  0.09800000  1.0 -0.5298607816
O  O22  1  0.36690000  0.44130000  0.40200000  1.0 -0.5298607816
O  O23  1  0.55870000  0.63310000  0.90200000  1.0 -0.5298607816
O  O24  1  0.63310000  0.55870000  0.59800000  1.0 -0.5298607816
O  O25  1  0.33060000  0.91300000  0.22450000  1.0 -0.2095371186
O  O26  1  0.91300000  0.33060000  0.27550000  1.0 -0.2095371186
O  O27  1  0.66940000  0.08700000  0.77550000  1.0 -0.2095371186
O  O28  1  0.08700000  0.66940000  0.72450000  1.0 -0.2095371186
O  O29  1  0.02030000  0.61650000  0.02800000  1.0 -0.5600462725
O  O30  1  0.61650000  0.02030000  0.47200000  1.0 -0.5600462725
O  O31  1  0.97970000  0.38350000  0.97200000  1.0 -0.5600462725
O  O32  1  0.38350000  0.97970000  0.52800000  1.0 -0.5600462725
O  O33  1  0.12390000  0.54590000  0.10860000  1.0 -0.5298607816
O  O34  1  0.54590000  0.12390000  0.39140000  1.0 -0.5298607816
O  O35  1  0.87610000  0.45410000  0.89140000  1.0 -0.5298607816
O  O36  1  0.45410000  0.87610000  0.60860000  1.0 -0.5298607816
O  O37  1  0.46740000  0.35160000  0.01070000  1.0 -0.5298607816
O  O38  1  0.35160000  0.46740000  0.48930000  1.0 -0.5298607816
O  O39  1  0.53260000  0.64840000  0.98930000  1.0 -0.5298607816
O  O40  1  0.64840000  0.53260000  0.51070000  1.0 -0.5298607816
O  O41  1  0.61830000  0.84710000  0.62290000  1.0 -0.0997557511
O  O42  1  0.84710000  0.61830000  0.87710000  1.0 -0.0997557511
O  O43  1  0.38170000  0.15290000  0.37710000  1.0 -0.0997557511
O  O44  1  0.15290000  0.38170000  0.12290000  1.0 -0.0997557511
O  O45  1  0.63400000  0.86280000  0.60180000  1.0 -0.0815136611
O  O46  1  0.86280000  0.63400000  0.89820000  1.0 -0.0815136611
O  O47  1  0.36600000  0.13720000  0.39820000  1.0 -0.0815136611
O  O48  1  0.13720000  0.36600000  0.10180000  1.0 -0.0815136611
