# DDEC6 charges by PACMAN v1.1 (https://github.com/mtap-research/PACMAN-charge/)
data_XOQXIL_FSR_pacman
_symmetry_space_group_name_H-M   'P 1'
_cell_length_a   17.40580000
_cell_length_b   17.40580000
_cell_length_c   32.30600000
_cell_angle_alpha   71.33250000
_cell_angle_beta   108.66800000
_cell_angle_gamma   147.71400000
_symmetry_Int_Tables_number   1
_chemical_formula_structural   Zn4Si3H54C84(NO9)2
_chemical_formula_sum   'Zn8 Si6 H108 C168 N4 O36'
_cell_volume   4929.16602468
_cell_formula_units_Z   2
loop_
 _symmetry_equiv_pos_site_id
 _symmetry_equiv_pos_as_xyz
  1  'x, y, z'
loop_
 _atom_site_type_symbol
 _atom_site_label
 _atom_site_symmetry_multiplicity
 _atom_site_fract_x
 _atom_site_fract_y
 _atom_site_fract_z
 _atom_site_occupancy
 _atom_site_charge
Zn  Zn1  1  0.59462000  0.65900000  0.48821000  1.0 1.0926751506
Zn  Zn2  1  0.65900000  0.59462000  0.01179000  1.0 1.0926751506
Zn  Zn3  1  0.40538000  0.34100000  0.51179000  1.0 1.0926751506
Zn  Zn4  1  0.34100000  0.40538000  0.98821000  1.0 1.0926751506
Zn  Zn5  1  0.32897000  0.45101000  0.53766000  1.0 0.9876165401
Zn  Zn6  1  0.45101000  0.32897000  0.96234000  1.0 0.9876165401
Zn  Zn7  1  0.67103000  0.54899000  0.46234000  1.0 0.9876165401
Zn  Zn8  1  0.54899000  0.67103000  0.03766000  1.0 0.9876165401
Si  Si1  1  0.45966000  0.07666000  0.39215000  1.0 0.6428752255
Si  Si2  1  0.07666000  0.45966000  0.10785000  1.0 0.6428752255
Si  Si3  1  0.54034000  0.92334000  0.60785000  1.0 0.6428752255
Si  Si4  1  0.92334000  0.54034000  0.89215000  1.0 0.6428752255
Si  Si5  1  0.00120000  0.00120000  0.75000000  1.0 0.6625048231
Si  Si6  1  0.99880000  0.99880000  0.25000000  1.0 0.6625048231
H  H1  1  0.57800000  0.03360000  0.37790000  1.0 0.1113478452
H  H2  1  0.03360000  0.57800000  0.12210000  1.0 0.1113478452
H  H3  1  0.42200000  0.96640000  0.62210000  1.0 0.1113478452
H  H4  1  0.96640000  0.42200000  0.87790000  1.0 0.1113478452
H  H5  1  0.57500000  0.89100000  0.41030000  1.0 0.1188569315
H  H6  1  0.89100000  0.57500000  0.08970000  1.0 0.1188569315
H  H7  1  0.42500000  0.10900000  0.58970000  1.0 0.1188569315
H  H8  1  0.10900000  0.42500000  0.91030000  1.0 0.1188569315
H  H9  1  0.27310000  0.66610000  0.48740000  1.0 0.1113478452
H  H10  1  0.66610000  0.27310000  0.01260000  1.0 0.1113478452
H  H11  1  0.72690000  0.33390000  0.51260000  1.0 0.1113478452
H  H12  1  0.33390000  0.72690000  0.98740000  1.0 0.1113478452
H  H13  1  0.28830000  0.81910000  0.45710000  1.0 0.1113478452
H  H14  1  0.81910000  0.28830000  0.04290000  1.0 0.1113478452
H  H15  1  0.71170000  0.18090000  0.54290000  1.0 0.1113478452
H  H16  1  0.18090000  0.71170000  0.95710000  1.0 0.1113478452
H  H17  1  0.60210000  0.34330000  0.39870000  1.0 0.1188569315
H  H18  1  0.34330000  0.60210000  0.10130000  1.0 0.1188569315
H  H19  1  0.39790000  0.65670000  0.60130000  1.0 0.1188569315
H  H20  1  0.65670000  0.39790000  0.89870000  1.0 0.1188569315
H  H21  1  0.82980000  0.56980000  0.42000000  1.0 0.1188569315
H  H22  1  0.56980000  0.82980000  0.08000000  1.0 0.1188569315
H  H23  1  0.17020000  0.43020000  0.58000000  1.0 0.1188569315
H  H24  1  0.43020000  0.17020000  0.92000000  1.0 0.1188569315
H  H25  1  0.01260000  0.62720000  0.44740000  1.0 0.1113478452
H  H26  1  0.62720000  0.01260000  0.05260000  1.0 0.1113478452
H  H27  1  0.98740000  0.37280000  0.55260000  1.0 0.1113478452
H  H28  1  0.37280000  0.98740000  0.94740000  1.0 0.1113478452
H  H29  1  0.96420000  0.44920000  0.45470000  1.0 0.1188569315
H  H30  1  0.44920000  0.96420000  0.04530000  1.0 0.1188569315
H  H31  1  0.03580000  0.55080000  0.54530000  1.0 0.1188569315
H  H32  1  0.55080000  0.03580000  0.95470000  1.0 0.1188569315
H  H33  1  0.73510000  0.22110000  0.43480000  1.0 0.1113478452
H  H34  1  0.22110000  0.73510000  0.06520000  1.0 0.1113478452
H  H35  1  0.26490000  0.77890000  0.56520000  1.0 0.1113478452
H  H36  1  0.77890000  0.26490000  0.93480000  1.0 0.1113478452
H  H37  1  0.33530000  0.91010000  0.31980000  1.0 0.1188569315
H  H38  1  0.91010000  0.33530000  0.18020000  1.0 0.1188569315
H  H39  1  0.66470000  0.08990000  0.68020000  1.0 0.1188569315
H  H40  1  0.08990000  0.66470000  0.81980000  1.0 0.1188569315
H  H41  1  0.32820000  0.94240000  0.24550000  1.0 0.1113478452
H  H42  1  0.94240000  0.32820000  0.25450000  1.0 0.1113478452
H  H43  1  0.67180000  0.05760000  0.75450000  1.0 0.1113478452
H  H44  1  0.05760000  0.67180000  0.74550000  1.0 0.1113478452
H  H45  1  0.39750000  0.12970000  0.20670000  1.0 0.126987667
H  H46  1  0.12970000  0.39750000  0.29330000  1.0 0.126987667
H  H47  1  0.60250000  0.87030000  0.79330000  1.0 0.126987667
H  H48  1  0.87030000  0.60250000  0.70670000  1.0 0.126987667
H  H49  1  0.46600000  0.27620000  0.24610000  1.0 0.1188569315
H  H50  1  0.27620000  0.46600000  0.25390000  1.0 0.1188569315
H  H51  1  0.53400000  0.72380000  0.75390000  1.0 0.1188569315
H  H52  1  0.72380000  0.53400000  0.74610000  1.0 0.1188569315
H  H53  1  0.51640000  0.26920000  0.32150000  1.0 0.1113478452
H  H54  1  0.26920000  0.51640000  0.17850000  1.0 0.1113478452
H  H55  1  0.48360000  0.73080000  0.67850000  1.0 0.1113478452
H  H56  1  0.73080000  0.48360000  0.82150000  1.0 0.1113478452
H  H57  1  0.42270000  0.10470000  0.46670000  1.0 0.1113478452
H  H58  1  0.10470000  0.42270000  0.03330000  1.0 0.1113478452
H  H59  1  0.57730000  0.89530000  0.53330000  1.0 0.1113478452
H  H60  1  0.89530000  0.57730000  0.96670000  1.0 0.1113478452
H  H61  1  0.24330000  0.02330000  0.48750000  1.0 0.1188569315
H  H62  1  0.02330000  0.24330000  0.01250000  1.0 0.1188569315
H  H63  1  0.75670000  0.97670000  0.51250000  1.0 0.1188569315
H  H64  1  0.97670000  0.75670000  0.98750000  1.0 0.1188569315
H  H65  1  0.98760000  0.81040000  0.37920000  1.0 0.1113478452
H  H66  1  0.81040000  0.98760000  0.12080000  1.0 0.1113478452
H  H67  1  0.01240000  0.18960000  0.62080000  1.0 0.1113478452
H  H68  1  0.18960000  0.01240000  0.87920000  1.0 0.1113478452
H  H69  1  0.17200000  0.90440000  0.35600000  1.0 0.1113478452
H  H70  1  0.90440000  0.17200000  0.14400000  1.0 0.1113478452
H  H71  1  0.82800000  0.09560000  0.64400000  1.0 0.1113478452
H  H72  1  0.09560000  0.82800000  0.85600000  1.0 0.1113478452
H  H73  1  0.03310000  0.99190000  0.66690000  1.0 0.1113478452
H  H74  1  0.99190000  0.03310000  0.83310000  1.0 0.1113478452
H  H75  1  0.96690000  0.00810000  0.33310000  1.0 0.1113478452
H  H76  1  0.00810000  0.96690000  0.16690000  1.0 0.1113478452
H  H77  1  0.88450000  0.87350000  0.60460000  1.0 0.126987667
H  H78  1  0.87350000  0.88450000  0.89540000  1.0 0.126987667
H  H79  1  0.11550000  0.12650000  0.39540000  1.0 0.126987667
H  H80  1  0.12650000  0.11550000  0.10460000  1.0 0.126987667
H  H81  1  0.54610000  0.64950000  0.65760000  1.0 0.1113478452
H  H82  1  0.64950000  0.54610000  0.84240000  1.0 0.1113478452
H  H83  1  0.45390000  0.35050000  0.34240000  1.0 0.1113478452
H  H84  1  0.35050000  0.45390000  0.15760000  1.0 0.1113478452
H  H85  1  0.69630000  0.77170000  0.71990000  1.0 0.1113478452
H  H86  1  0.77170000  0.69630000  0.78010000  1.0 0.1113478452
H  H87  1  0.30370000  0.22830000  0.28010000  1.0 0.1113478452
H  H88  1  0.22830000  0.30370000  0.21990000  1.0 0.1113478452
H  H89  1  0.24040000  0.29140000  0.70870000  1.0 0.1188569315
H  H90  1  0.29140000  0.24040000  0.79130000  1.0 0.1188569315
H  H91  1  0.75960000  0.70860000  0.29130000  1.0 0.1188569315
H  H92  1  0.70860000  0.75960000  0.20870000  1.0 0.1188569315
H  H93  1  0.31300000  0.48440000  0.68350000  1.0 0.1188569315
H  H94  1  0.48440000  0.31300000  0.81650000  1.0 0.1188569315
H  H95  1  0.68700000  0.51560000  0.31650000  1.0 0.1188569315
H  H96  1  0.51560000  0.68700000  0.18350000  1.0 0.1188569315
H  H97  1  0.17870000  0.47110000  0.69410000  1.0 0.1188569315
H  H98  1  0.47110000  0.17870000  0.80590000  1.0 0.1188569315
H  H99  1  0.82130000  0.52890000  0.30590000  1.0 0.1188569315
H  H100  1  0.52890000  0.82130000  0.19410000  1.0 0.1188569315
H  H101  1  0.97520000  0.26840000  0.73290000  1.0 0.1113478452
H  H102  1  0.26840000  0.97520000  0.76710000  1.0 0.1113478452
H  H103  1  0.02480000  0.73160000  0.26710000  1.0 0.1113478452
H  H104  1  0.73160000  0.02480000  0.23290000  1.0 0.1113478452
H  H105  1  0.90220000  0.07120000  0.75810000  1.0 0.1113478452
H  H106  1  0.07120000  0.90220000  0.74190000  1.0 0.1113478452
H  H107  1  0.09780000  0.92880000  0.24190000  1.0 0.1113478452
H  H108  1  0.92880000  0.09780000  0.25810000  1.0 0.1113478452
C  C1  1  0.43583000  0.94457000  0.41460000  1.0 -0.2096507724
C  C2  1  0.94457000  0.43583000  0.08540000  1.0 -0.2096507724
C  C3  1  0.56417000  0.05543000  0.58540000  1.0 -0.2096507724
C  C4  1  0.05543000  0.56417000  0.91460000  1.0 -0.2096507724
C  C5  1  0.51820000  0.96100000  0.40090000  1.0 -0.0895681346
C  C6  1  0.96100000  0.51820000  0.09910000  1.0 -0.0895681346
C  C7  1  0.48180000  0.03900000  0.59910000  1.0 -0.0895681346
C  C8  1  0.03900000  0.48180000  0.90090000  1.0 -0.0895681346
C  C9  1  0.51544000  0.87496000  0.41970000  1.0 -0.1002258836
C  C10  1  0.87496000  0.51544000  0.08030000  1.0 -0.1002258836
C  C11  1  0.48456000  0.12504000  0.58030000  1.0 -0.1002258836
C  C12  1  0.12504000  0.48456000  0.91970000  1.0 -0.1002258836
C  C13  1  0.42429000  0.76471000  0.45260000  1.0 -0.0227481836
C  C14  1  0.76471000  0.42429000  0.04740000  1.0 -0.0227481836
C  C15  1  0.57571000  0.23529000  0.54740000  1.0 -0.0227481836
C  C16  1  0.23529000  0.57571000  0.95260000  1.0 -0.0227481836
C  C17  1  0.33777000  0.74283000  0.46580000  1.0 -0.1002258836
C  C18  1  0.74283000  0.33777000  0.03420000  1.0 -0.1002258836
C  C19  1  0.66223000  0.25717000  0.53420000  1.0 -0.1002258836
C  C20  1  0.25717000  0.66223000  0.96580000  1.0 -0.1002258836
C  C21  1  0.34599000  0.83361000  0.44720000  1.0 -0.0823831941
C  C22  1  0.83361000  0.34599000  0.05280000  1.0 -0.0823831941
C  C23  1  0.65401000  0.16639000  0.55280000  1.0 -0.0823831941
C  C24  1  0.16639000  0.65401000  0.94720000  1.0 -0.0823831941
C  C25  1  0.42718000  0.67702000  0.47476000  1.0 0.5853576373
C  C26  1  0.67702000  0.42718000  0.02524000  1.0 0.5853576373
C  C27  1  0.57282000  0.32298000  0.52524000  1.0 0.5853576373
C  C28  1  0.32298000  0.57282000  0.97476000  1.0 0.5853576373
C  C29  1  0.64315000  0.25605000  0.41330000  1.0 -0.1997178931
C  C30  1  0.25605000  0.64315000  0.08670000  1.0 -0.1997178931
C  C31  1  0.35685000  0.74395000  0.58670000  1.0 -0.1997178931
C  C32  1  0.74395000  0.35685000  0.91330000  1.0 -0.1997178931
C  C33  1  0.67574000  0.36426000  0.41000000  1.0 -0.0823831941
C  C34  1  0.36426000  0.67574000  0.09000000  1.0 -0.0823831941
C  C35  1  0.32426000  0.63574000  0.59000000  1.0 -0.0823831941
C  C36  1  0.63574000  0.32426000  0.91000000  1.0 -0.0823831941
C  C37  1  0.81110000  0.49910000  0.42270000  1.0 -0.0698630911
C  C38  1  0.49910000  0.81110000  0.07730000  1.0 -0.0698630911
C  C39  1  0.18890000  0.50090000  0.57730000  1.0 -0.0698630911
C  C40  1  0.50090000  0.18890000  0.92270000  1.0 -0.0698630911
C  C41  1  0.91870000  0.53310000  0.43900000  1.0 -0.0823831941
C  C42  1  0.53310000  0.91870000  0.06100000  1.0 -0.0823831941
C  C43  1  0.08130000  0.46690000  0.56100000  1.0 -0.0823831941
C  C44  1  0.46690000  0.08130000  0.93900000  1.0 -0.0823831941
C  C45  1  0.88990000  0.42710000  0.44330000  1.0 -0.1002258836
C  C46  1  0.42710000  0.88990000  0.05670000  1.0 -0.1002258836
C  C47  1  0.11010000  0.57290000  0.55670000  1.0 -0.1002258836
C  C48  1  0.57290000  0.11010000  0.94330000  1.0 -0.1002258836
C  C49  1  0.75400000  0.29240000  0.43100000  1.0 -0.0823831941
C  C50  1  0.29240000  0.75400000  0.06900000  1.0 -0.0823831941
C  C51  1  0.24600000  0.70760000  0.56900000  1.0 -0.0823831941
C  C52  1  0.70760000  0.24600000  0.93100000  1.0 -0.0823831941
C  C53  1  0.44110000  0.09310000  0.33040000  1.0 -0.1922547434
C  C54  1  0.09310000  0.44110000  0.16960000  1.0 -0.1922547434
C  C55  1  0.55890000  0.90690000  0.66960000  1.0 -0.1922547434
C  C56  1  0.90690000  0.55890000  0.83040000  1.0 -0.1922547434
C  C57  1  0.37530000  0.99430000  0.30490000  1.0 -0.1002258836
C  C58  1  0.99430000  0.37530000  0.19510000  1.0 -0.1002258836
C  C59  1  0.62470000  0.00570000  0.69510000  1.0 -0.1002258836
C  C60  1  0.00570000  0.62470000  0.80490000  1.0 -0.1002258836
C  C61  1  0.36370000  0.00830000  0.26060000  1.0 -0.0895681346
C  C62  1  0.00830000  0.36370000  0.23940000  1.0 -0.0895681346
C  C63  1  0.63630000  0.99170000  0.73940000  1.0 -0.0895681346
C  C64  1  0.99170000  0.63630000  0.76060000  1.0 -0.0895681346
C  C65  1  0.40260000  0.11640000  0.23790000  1.0 -0.0823831941
C  C66  1  0.11640000  0.40260000  0.26210000  1.0 -0.0823831941
C  C67  1  0.59740000  0.88360000  0.76210000  1.0 -0.0823831941
C  C68  1  0.88360000  0.59740000  0.73790000  1.0 -0.0823831941
C  C69  1  0.45020000  0.20740000  0.26130000  1.0 -0.0823831941
C  C70  1  0.20740000  0.45020000  0.23870000  1.0 -0.0823831941
C  C71  1  0.54980000  0.79260000  0.73870000  1.0 -0.0823831941
C  C72  1  0.79260000  0.54980000  0.76130000  1.0 -0.0823831941
C  C73  1  0.47490000  0.19950000  0.30650000  1.0 -0.0895681346
C  C74  1  0.19950000  0.47490000  0.19350000  1.0 -0.0895681346
C  C75  1  0.52510000  0.80050000  0.69350000  1.0 -0.0895681346
C  C76  1  0.80050000  0.52510000  0.80650000  1.0 -0.0895681346
C  C77  1  0.31719000  0.01361000  0.40906000  1.0 -0.1997178931
C  C78  1  0.01361000  0.31719000  0.09094000  1.0 -0.1997178931
C  C79  1  0.68281000  0.98639000  0.59094000  1.0 -0.1997178931
C  C80  1  0.98639000  0.68281000  0.90906000  1.0 -0.1997178931
C  C81  1  0.33473000  0.04627000  0.44830000  1.0 -0.0823831941
C  C82  1  0.04627000  0.33473000  0.05170000  1.0 -0.0823831941
C  C83  1  0.66527000  0.95373000  0.55170000  1.0 -0.0823831941
C  C84  1  0.95373000  0.66527000  0.94830000  1.0 -0.0823831941
C  C85  1  0.22706000  0.99574000  0.46130000  1.0 -0.1002258836
C  C86  1  0.99574000  0.22706000  0.03870000  1.0 -0.1002258836
C  C87  1  0.77294000  0.00426000  0.53870000  1.0 -0.1002258836
C  C88  1  0.00426000  0.77294000  0.96130000  1.0 -0.1002258836
C  C89  1  0.09736000  0.90584000  0.43592000  1.0 -0.0280926831
C  C90  1  0.90584000  0.09736000  0.06408000  1.0 -0.0280926831
C  C91  1  0.90264000  0.09416000  0.56408000  1.0 -0.0280926831
C  C92  1  0.09416000  0.90264000  0.93592000  1.0 -0.0280926831
C  C93  1  0.07716000  0.87184000  0.39688000  1.0 -0.1002258836
C  C94  1  0.87184000  0.07716000  0.10312000  1.0 -0.1002258836
C  C95  1  0.92284000  0.12816000  0.60312000  1.0 -0.1002258836
C  C96  1  0.12816000  0.92284000  0.89688000  1.0 -0.1002258836
C  C97  1  0.18655000  0.92665000  0.38329000  1.0 -0.0895681346
C  C98  1  0.92665000  0.18655000  0.11671000  1.0 -0.0895681346
C  C99  1  0.81345000  0.07335000  0.61671000  1.0 -0.0895681346
C  C100  1  0.07335000  0.81345000  0.88329000  1.0 -0.0895681346
C  C101  1  0.97396000  0.83884000  0.45075000  1.0 0.5414081525
C  C102  1  0.83884000  0.97396000  0.04925000  1.0 0.5414081525
C  C103  1  0.02604000  0.16116000  0.54925000  1.0 0.5414081525
C  C104  1  0.16116000  0.02604000  0.95075000  1.0 0.5414081525
C  C105  1  0.88210000  0.89430000  0.70130000  1.0 -0.1997178931
C  C106  1  0.89430000  0.88210000  0.79870000  1.0 -0.1997178931
C  C107  1  0.11790000  0.10570000  0.29870000  1.0 -0.1997178931
C  C108  1  0.10570000  0.11790000  0.20130000  1.0 -0.1997178931
C  C109  1  0.93357000  0.92183000  0.66550000  1.0 -0.0823831941
C  C110  1  0.92183000  0.93357000  0.83450000  1.0 -0.0823831941
C  C111  1  0.06643000  0.07817000  0.33450000  1.0 -0.0823831941
C  C112  1  0.07817000  0.06643000  0.16550000  1.0 -0.0823831941
C  C113  1  0.84491000  0.85089000  0.62837000  1.0 -0.0895681346
C  C114  1  0.85089000  0.84491000  0.87163000  1.0 -0.0895681346
C  C115  1  0.15509000  0.14911000  0.37163000  1.0 -0.0895681346
C  C116  1  0.14911000  0.15509000  0.12837000  1.0 -0.0895681346
C  C117  1  0.70066000  0.74814000  0.62487000  1.0 -0.0227481836
C  C118  1  0.74814000  0.70066000  0.87513000  1.0 -0.0227481836
C  C119  1  0.29934000  0.25186000  0.37513000  1.0 -0.0227481836
C  C120  1  0.25186000  0.29934000  0.12487000  1.0 -0.0227481836
C  C121  1  0.64560000  0.71920000  0.65950000  1.0 -0.1002258836
C  C122  1  0.71920000  0.64560000  0.84050000  1.0 -0.1002258836
C  C123  1  0.35440000  0.28080000  0.34050000  1.0 -0.1002258836
C  C124  1  0.28080000  0.35440000  0.15950000  1.0 -0.1002258836
C  C125  1  0.73570000  0.79210000  0.69670000  1.0 -0.0895681346
C  C126  1  0.79210000  0.73570000  0.80330000  1.0 -0.0895681346
C  C127  1  0.26430000  0.20790000  0.30330000  1.0 -0.0895681346
C  C128  1  0.20790000  0.26430000  0.19670000  1.0 -0.0895681346
C  C129  1  0.60243000  0.66957000  0.58508000  1.0 0.5776579689
C  C130  1  0.66957000  0.60243000  0.91492000  1.0 0.5776579689
C  C131  1  0.39757000  0.33043000  0.41492000  1.0 0.5776579689
C  C132  1  0.33043000  0.39757000  0.08508000  1.0 0.5776579689
C  C133  1  0.06380000  0.16020000  0.73660000  1.0 -0.1816765655
C  C134  1  0.16020000  0.06380000  0.76340000  1.0 -0.1816765655
C  C135  1  0.93620000  0.83980000  0.26340000  1.0 -0.1816765655
C  C136  1  0.83980000  0.93620000  0.23660000  1.0 -0.1816765655
C  C137  1  0.18470000  0.28550000  0.71390000  1.0 -0.0895681346
C  C138  1  0.28550000  0.18470000  0.78610000  1.0 -0.0895681346
C  C139  1  0.81530000  0.71450000  0.28610000  1.0 -0.0895681346
C  C140  1  0.71450000  0.81530000  0.21390000  1.0 -0.0895681346
C  C141  1  0.22860000  0.40060000  0.69860000  1.0 -0.0895681346
C  C142  1  0.40060000  0.22860000  0.80140000  1.0 -0.0895681346
C  C143  1  0.77140000  0.59940000  0.30140000  1.0 -0.0895681346
C  C144  1  0.59940000  0.77140000  0.19860000  1.0 -0.0895681346
C  C145  1  0.15070000  0.39270000  0.70510000  1.0 -0.0823831941
C  C146  1  0.39270000  0.15070000  0.79490000  1.0 -0.0823831941
C  C147  1  0.84930000  0.60730000  0.29490000  1.0 -0.0823831941
C  C148  1  0.60730000  0.84930000  0.20510000  1.0 -0.0823831941
C  C149  1  0.02910000  0.27210000  0.72780000  1.0 -0.0823831941
C  C150  1  0.27210000  0.02910000  0.77220000  1.0 -0.0823831941
C  C151  1  0.97090000  0.72790000  0.27220000  1.0 -0.0823831941
C  C152  1  0.72790000  0.97090000  0.22780000  1.0 -0.0823831941
C  C153  1  0.98650000  0.15510000  0.74310000  1.0 -0.0823831941
C  C154  1  0.15510000  0.98650000  0.75690000  1.0 -0.0895681346
C  C155  1  0.01350000  0.84490000  0.25690000  1.0 -0.0895681346
C  C156  1  0.84490000  0.01350000  0.24310000  1.0 -0.0823831941
C  C157  1  0.59610000  0.71390000  0.38530000  1.0 0.2535136055
C  C158  1  0.71390000  0.59610000  0.11470000  1.0 0.2535136055
C  C159  1  0.40390000  0.28610000  0.61470000  1.0 0.2535136055
C  C160  1  0.28610000  0.40390000  0.88530000  1.0 0.2565280806
C  C161  1  0.39840000  0.53960000  0.32290000  1.0 -0.1922547434
C  C162  1  0.53960000  0.39840000  0.17710000  1.0 -0.1922547434
C  C163  1  0.60160000  0.46040000  0.67710000  1.0 -0.1922547434
C  C164  1  0.46040000  0.60160000  0.82290000  1.0 -0.1922547434
C  C165  1  0.62210000  0.67610000  0.34180000  1.0 -0.0227481836
C  C166  1  0.67610000  0.62210000  0.15820000  1.0 -0.0227481836
C  C167  1  0.37790000  0.32390000  0.65820000  1.0 -0.0227481836
C  C168  1  0.32390000  0.37790000  0.84180000  1.0 -0.0227481836
N  N1  1  0.53450000  0.63550000  0.35180000  1.0 0.0374907341
N  N2  1  0.63550000  0.53450000  0.14820000  1.0 0.0374907341
N  N3  1  0.46550000  0.36450000  0.64820000  1.0 0.0374907341
N  N4  1  0.36450000  0.46550000  0.85180000  1.0 0.0374907341
O  O1  1  0.81226000  0.86914000  0.47752000  1.0 0.0665514232
O  O2  1  0.86914000  0.81226000  0.02248000  1.0 0.0665514232
O  O3  1  0.18774000  0.13086000  0.52248000  1.0 0.0665514232
O  O4  1  0.13086000  0.18774000  0.97752000  1.0 0.0644740623
O  O5  1  0.53240000  0.72620000  0.46874000  1.0 -0.548381238
O  O6  1  0.72620000  0.53240000  0.03126000  1.0 -0.548381238
O  O7  1  0.46760000  0.27380000  0.53126000  1.0 -0.548381238
O  O8  1  0.27380000  0.46760000  0.96874000  1.0 -0.548381238
O  O9  1  0.32738000  0.56462000  0.49856000  1.0 -0.5266324568
O  O10  1  0.56462000  0.32738000  0.00144000  1.0 -0.5266324568
O  O11  1  0.67262000  0.43538000  0.50144000  1.0 -0.5266324568
O  O12  1  0.43538000  0.67262000  0.99856000  1.0 -0.5266324568
O  O13  1  0.84835000  0.71925000  0.43494000  1.0 -0.5716018367
O  O14  1  0.71925000  0.84835000  0.06506000  1.0 -0.5716018367
O  O15  1  0.15165000  0.28075000  0.56506000  1.0 -0.5716018367
O  O16  1  0.28075000  0.15165000  0.93494000  1.0 -0.5716018367
O  O17  1  0.99612000  0.89648000  0.47661000  1.0 -0.3966971624
O  O18  1  0.89648000  0.99612000  0.02339000  1.0 -0.3966971624
O  O19  1  0.00388000  0.10352000  0.52339000  1.0 -0.3966971624
O  O20  1  0.10352000  0.00388000  0.97661000  1.0 -0.3966971624
O  O21  1  0.37452000  0.43808000  0.49554000  1.0 -0.8368821133
O  O22  1  0.43808000  0.37452000  0.00446000  1.0 -0.8368821133
O  O23  1  0.62548000  0.56192000  0.50446000  1.0 -0.8368821133
O  O24  1  0.56192000  0.62548000  0.99554000  1.0 -0.8368821133
O  O25  1  0.46853000  0.57047000  0.58604000  1.0 -0.5411469627
O  O26  1  0.57047000  0.46853000  0.91396000  1.0 -0.5411469627
O  O27  1  0.53147000  0.42953000  0.41396000  1.0 -0.5411469627
O  O28  1  0.42953000  0.53147000  0.08604000  1.0 -0.5411469627
O  O29  1  0.65599000  0.70301000  0.55310000  1.0 -0.5145173956
O  O30  1  0.70301000  0.65599000  0.94690000  1.0 -0.5145173956
O  O31  1  0.34401000  0.29699000  0.44690000  1.0 -0.5145173956
O  O32  1  0.29699000  0.34401000  0.05310000  1.0 -0.5145173956
O  O33  1  0.56345000  0.63495000  0.41980000  1.0 -0.4244115937
O  O34  1  0.63495000  0.56345000  0.08020000  1.0 -0.4244115937
O  O35  1  0.43655000  0.36505000  0.58020000  1.0 -0.4244115937
O  O36  1  0.36505000  0.43655000  0.91980000  1.0 -0.4244115937
