# DDEC6 charges by PACMAN v1.1 (https://github.com/mtap-research/PACMAN-charge/)
data_XORHET_ASR_pacman
_symmetry_space_group_name_H-M   'P 1'
_cell_length_a   18.34100000
_cell_length_b   18.34100000
_cell_length_c   17.50300000
_cell_angle_alpha   90.00000000
_cell_angle_beta   90.00000000
_cell_angle_gamma   90.00000000
_symmetry_Int_Tables_number   1
_chemical_formula_structural   CoH4(CN)8
_chemical_formula_sum   'Co16 H64 C128 N128'
_cell_volume   5887.87409434
_cell_formula_units_Z   16
loop_
 _symmetry_equiv_pos_site_id
 _symmetry_equiv_pos_as_xyz
  1  'x, y, z'
loop_
 _atom_site_type_symbol
 _atom_site_label
 _atom_site_symmetry_multiplicity
 _atom_site_fract_x
 _atom_site_fract_y
 _atom_site_fract_z
 _atom_site_occupancy
 _atom_site_charge
Co  Co1  1  0.84010000  0.84010000  0.00000000  1.0 0.5871758772
Co  Co2  1  0.15990000  0.15990000  0.50000000  1.0 0.5871758772
Co  Co3  1  0.34010000  0.65990000  0.75000000  1.0 0.5871758772
Co  Co4  1  0.65990000  0.34010000  0.25000000  1.0 0.5871758772
Co  Co5  1  0.93261000  0.65364000  0.91377000  1.0 0.5670105466
Co  Co6  1  0.06739000  0.34636000  0.41377000  1.0 0.5630313916
Co  Co7  1  0.15364000  0.56739000  0.66377000  1.0 0.5670105466
Co  Co8  1  0.84636000  0.43261000  0.16377000  1.0 0.5670105466
Co  Co9  1  0.43261000  0.84636000  0.83623000  1.0 0.5670105466
Co  Co10  1  0.56739000  0.15364000  0.33623000  1.0 0.5670105466
Co  Co11  1  0.65364000  0.93261000  0.08623000  1.0 0.5670105466
Co  Co12  1  0.34636000  0.06739000  0.58623000  1.0 0.5670105466
Co  Co13  1  0.05608000  0.94392000  0.25000000  1.0 0.4415582183
Co  Co14  1  0.94392000  0.05608000  0.75000000  1.0 0.4415582183
Co  Co15  1  0.44392000  0.44392000  0.00000000  1.0 0.4471487863
Co  Co16  1  0.55608000  0.55608000  0.50000000  1.0 0.4415582183
H  H1  1  0.77780000  0.73850000  0.14220000  1.0 0.1081820236
H  H2  1  0.22220000  0.26150000  0.64220000  1.0 0.1081820236
H  H3  1  0.23850000  0.72220000  0.89220000  1.0 0.1081820236
H  H4  1  0.76150000  0.27780000  0.39220000  1.0 0.1081820236
H  H5  1  0.27780000  0.76150000  0.60780000  1.0 0.1081820236
H  H6  1  0.72220000  0.23850000  0.10780000  1.0 0.1081820236
H  H7  1  0.73850000  0.77780000  0.85780000  1.0 0.1081820236
H  H8  1  0.26150000  0.22220000  0.35780000  1.0 0.1081820236
H  H9  1  0.74360000  0.95300000  0.24900000  1.0 0.1081820236
H  H10  1  0.25640000  0.04700000  0.74900000  1.0 0.1081820236
H  H11  1  0.45300000  0.75640000  0.99900000  1.0 0.1081820236
H  H12  1  0.54700000  0.24360000  0.49900000  1.0 0.1081820236
H  H13  1  0.24360000  0.54700000  0.50100000  1.0 0.1081820236
H  H14  1  0.75640000  0.45300000  0.00100000  1.0 0.1081820236
H  H15  1  0.95300000  0.74360000  0.75100000  1.0 0.1081820236
H  H16  1  0.04700000  0.25640000  0.25100000  1.0 0.1081820236
H  H17  1  0.16450000  0.81450000  0.02370000  1.0 0.1200619824
H  H18  1  0.83550000  0.18550000  0.52370000  1.0 0.1200619824
H  H19  1  0.31450000  0.33550000  0.77370000  1.0 0.1200619824
H  H20  1  0.68550000  0.66450000  0.27370000  1.0 0.1200619824
H  H21  1  0.66450000  0.68550000  0.72630000  1.0 0.1200619824
H  H22  1  0.33550000  0.31450000  0.22630000  1.0 0.1200619824
H  H23  1  0.81450000  0.16450000  0.97630000  1.0 0.1200619824
H  H24  1  0.18550000  0.83550000  0.47630000  1.0 0.1200619824
H  H25  1  0.23760000  0.94200000  0.23050000  1.0 0.1286360402
H  H26  1  0.76240000  0.05800000  0.73050000  1.0 0.1286360402
H  H27  1  0.44200000  0.26240000  0.98050000  1.0 0.1286360402
H  H28  1  0.55800000  0.73760000  0.48050000  1.0 0.1286360402
H  H29  1  0.73760000  0.55800000  0.51950000  1.0 0.1286360402
H  H30  1  0.26240000  0.44200000  0.01950000  1.0 0.1286360402
H  H31  1  0.94200000  0.23760000  0.76950000  1.0 0.1286360402
H  H32  1  0.05800000  0.76240000  0.26950000  1.0 0.1286360402
H  H33  1  0.31680000  0.88540000  0.15380000  1.0 0.1200619824
H  H34  1  0.68320000  0.11460000  0.65380000  1.0 0.1200619824
H  H35  1  0.38540000  0.18320000  0.90380000  1.0 0.1200619824
H  H36  1  0.61460000  0.81680000  0.40380000  1.0 0.1200619824
H  H37  1  0.81680000  0.61460000  0.59620000  1.0 0.1200619824
H  H38  1  0.18320000  0.38540000  0.09620000  1.0 0.1200619824
H  H39  1  0.88540000  0.31680000  0.84620000  1.0 0.1200619824
H  H40  1  0.11460000  0.68320000  0.34620000  1.0 0.1200619824
H  H41  1  0.02390000  0.34740000  0.96470000  1.0 0.1200619824
H  H42  1  0.97610000  0.65260000  0.46470000  1.0 0.1200619824
H  H43  1  0.84740000  0.47610000  0.71470000  1.0 0.1200619824
H  H44  1  0.15260000  0.52390000  0.21470000  1.0 0.1200619824
H  H45  1  0.52390000  0.15260000  0.78530000  1.0 0.1200619824
H  H46  1  0.47610000  0.84740000  0.28530000  1.0 0.1200619824
H  H47  1  0.34740000  0.02390000  0.03530000  1.0 0.1200619824
H  H48  1  0.65260000  0.97610000  0.53530000  1.0 0.1200619824
H  H49  1  0.88770000  0.25610000  0.15780000  1.0 0.1200619824
H  H50  1  0.11230000  0.74390000  0.65780000  1.0 0.1200619824
H  H51  1  0.75610000  0.61230000  0.90780000  1.0 0.1200619824
H  H52  1  0.24390000  0.38770000  0.40780000  1.0 0.1200619824
H  H53  1  0.38770000  0.24390000  0.59220000  1.0 0.1200619824
H  H54  1  0.61230000  0.75610000  0.09220000  1.0 0.1200619824
H  H55  1  0.25610000  0.88770000  0.84220000  1.0 0.1200619824
H  H56  1  0.74390000  0.11230000  0.34220000  1.0 0.1200619824
H  H57  1  0.96920000  0.18330000  0.09340000  1.0 0.1200619824
H  H58  1  0.03080000  0.81670000  0.59340000  1.0 0.1200619824
H  H59  1  0.68330000  0.53080000  0.84340000  1.0 0.1200619824
H  H60  1  0.31670000  0.46920000  0.34340000  1.0 0.1200619824
H  H61  1  0.46920000  0.31670000  0.65660000  1.0 0.1200619824
H  H62  1  0.53080000  0.68330000  0.15660000  1.0 0.1200619824
H  H63  1  0.18330000  0.96920000  0.90660000  1.0 0.1200619824
H  H64  1  0.81670000  0.03080000  0.40660000  1.0 0.1200619824
C  C1  1  0.80450000  0.70990000  0.10840000  1.0 0.1286360402
C  C2  1  0.19550000  0.29010000  0.60840000  1.0 0.1286360402
C  C3  1  0.20990000  0.69550000  0.85840000  1.0 0.1286360402
C  C4  1  0.79010000  0.30450000  0.35840000  1.0 0.1286360402
C  C5  1  0.30450000  0.79010000  0.64160000  1.0 0.1286360402
C  C6  1  0.69550000  0.20990000  0.14160000  1.0 0.1286360402
C  C7  1  0.70990000  0.80450000  0.89160000  1.0 0.1286360402
C  C8  1  0.29010000  0.19550000  0.39160000  1.0 0.1286360402
C  C9  1  0.93848000  0.87987000  0.12673000  1.0 0.2522701541
C  C10  1  0.06152000  0.12013000  0.62673000  1.0 0.2522701541
C  C11  1  0.37987000  0.56152000  0.87673000  1.0 0.2522701541
C  C12  1  0.62013000  0.43848000  0.37673000  1.0 0.2522701541
C  C13  1  0.43848000  0.62013000  0.62327000  1.0 0.2522701541
C  C14  1  0.56152000  0.37987000  0.12327000  1.0 0.2522701541
C  C15  1  0.87987000  0.93848000  0.87327000  1.0 0.2522701541
C  C16  1  0.12013000  0.06152000  0.37327000  1.0 0.2522701541
C  C17  1  0.86611000  0.89894000  0.15344000  1.0 0.2294906204
C  C18  1  0.13389000  0.10106000  0.65344000  1.0 0.2294906204
C  C19  1  0.39894000  0.63389000  0.90344000  1.0 0.2294906204
C  C20  1  0.60106000  0.36611000  0.40344000  1.0 0.2294906204
C  C21  1  0.36611000  0.60106000  0.59656000  1.0 0.2294906204
C  C22  1  0.63389000  0.39894000  0.09656000  1.0 0.2294906204
C  C23  1  0.89894000  0.86611000  0.84656000  1.0 0.2294906204
C  C24  1  0.10106000  0.13389000  0.34656000  1.0 0.2294906204
C  C25  1  0.85826000  0.62098000  0.05829000  1.0 0.2194940712
C  C26  1  0.14174000  0.37902000  0.55829000  1.0 0.2194940712
C  C27  1  0.12098000  0.64174000  0.80829000  1.0 0.2194940712
C  C28  1  0.87902000  0.35826000  0.30829000  1.0 0.2194940712
C  C29  1  0.35826000  0.87902000  0.69171000  1.0 0.2194940712
C  C30  1  0.64174000  0.12098000  0.19171000  1.0 0.2194940712
C  C31  1  0.62098000  0.85826000  0.94171000  1.0 0.2194940712
C  C32  1  0.37902000  0.14174000  0.44171000  1.0 0.2194940712
C  C33  1  0.05030000  0.86500000  0.10390000  1.0 0.2194940712
C  C34  1  0.94970000  0.13500000  0.60390000  1.0 0.2194940712
C  C35  1  0.36500000  0.44970000  0.85390000  1.0 0.2194940712
C  C36  1  0.63500000  0.55030000  0.35390000  1.0 0.2194940712
C  C37  1  0.55030000  0.63500000  0.64610000  1.0 0.2194940712
C  C38  1  0.44970000  0.36500000  0.14610000  1.0 0.2194940712
C  C39  1  0.86500000  0.05030000  0.89610000  1.0 0.2194940712
C  C40  1  0.13500000  0.94970000  0.39610000  1.0 0.2194940712
C  C41  1  0.77420000  0.93370000  0.21170000  1.0 0.1365362865
C  C42  1  0.22580000  0.06630000  0.71170000  1.0 0.1365362865
C  C43  1  0.43370000  0.72580000  0.96170000  1.0 0.1365362865
C  C44  1  0.56630000  0.27420000  0.46170000  1.0 0.1365362865
C  C45  1  0.27420000  0.56630000  0.53830000  1.0 0.1365362865
C  C46  1  0.72580000  0.43370000  0.03830000  1.0 0.1365362865
C  C47  1  0.93370000  0.77420000  0.78830000  1.0 0.1365362865
C  C48  1  0.06630000  0.22580000  0.28830000  1.0 0.1365362865
C  C49  1  0.89503000  0.55388000  0.03837000  1.0 0.2522701541
C  C50  1  0.10497000  0.44612000  0.53837000  1.0 0.2522701541
C  C51  1  0.05388000  0.60497000  0.78837000  1.0 0.2522701541
C  C52  1  0.94612000  0.39503000  0.28837000  1.0 0.2522701541
C  C53  1  0.39503000  0.94612000  0.71163000  1.0 0.2522701541
C  C54  1  0.60497000  0.05388000  0.21163000  1.0 0.2522701541
C  C55  1  0.55388000  0.89503000  0.96163000  1.0 0.2522701541
C  C56  1  0.44612000  0.10497000  0.46163000  1.0 0.2522701541
C  C57  1  0.12660000  0.87020000  0.11600000  1.0 0.1200619824
C  C58  1  0.87340000  0.12980000  0.61600000  1.0 0.1200619824
C  C59  1  0.37020000  0.37340000  0.86600000  1.0 0.1081820236
C  C60  1  0.62980000  0.62660000  0.36600000  1.0 0.1081820236
C  C61  1  0.62660000  0.62980000  0.63400000  1.0 0.1081820236
C  C62  1  0.37340000  0.37020000  0.13400000  1.0 0.1200619824
C  C63  1  0.87020000  0.12660000  0.88400000  1.0 0.1081820236
C  C64  1  0.12980000  0.87340000  0.38400000  1.0 0.1200619824
C  C65  1  0.17970000  0.84000000  0.06680000  1.0 -0.005340397
C  C66  1  0.82030000  0.16000000  0.56680000  1.0 -0.005340397
C  C67  1  0.34000000  0.32030000  0.81680000  1.0 -0.005340397
C  C68  1  0.66000000  0.67970000  0.31680000  1.0 -0.005340397
C  C69  1  0.67970000  0.66000000  0.68320000  1.0 -0.005340397
C  C70  1  0.32030000  0.34000000  0.18320000  1.0 -0.005340397
C  C71  1  0.84000000  0.17970000  0.93320000  1.0 -0.005340397
C  C72  1  0.16000000  0.82030000  0.43320000  1.0 -0.005340397
C  C73  1  0.93604000  0.44915000  0.02625000  1.0 0.2294906204
C  C74  1  0.06396000  0.55085000  0.52625000  1.0 0.2294906204
C  C75  1  0.94915000  0.56396000  0.77625000  1.0 0.2294906204
C  C76  1  0.05085000  0.43604000  0.27625000  1.0 0.2294906204
C  C77  1  0.43604000  0.05085000  0.72375000  1.0 0.2294906204
C  C78  1  0.56396000  0.94915000  0.22375000  1.0 0.2294906204
C  C79  1  0.44915000  0.93604000  0.97375000  1.0 0.2294906204
C  C80  1  0.55085000  0.06396000  0.47375000  1.0 0.2294906204
C  C81  1  0.22040000  0.91440000  0.18970000  1.0 -0.0261625551
C  C82  1  0.77960000  0.08560000  0.68970000  1.0 -0.0261625551
C  C83  1  0.41440000  0.27960000  0.93970000  1.0 -0.0261625551
C  C84  1  0.58560000  0.72040000  0.43970000  1.0 -0.0261625551
C  C85  1  0.72040000  0.58560000  0.56030000  1.0 -0.0261625551
C  C86  1  0.27960000  0.41440000  0.06030000  1.0 -0.0261625551
C  C87  1  0.91440000  0.22040000  0.81030000  1.0 -0.0261625551
C  C88  1  0.08560000  0.77960000  0.31030000  1.0 -0.0261625551
C  C89  1  0.94850000  0.37182000  0.04370000  1.0 0.1200619824
C  C90  1  0.05150000  0.62818000  0.54370000  1.0 0.1200619824
C  C91  1  0.87182000  0.55150000  0.79370000  1.0 0.1200619824
C  C92  1  0.12818000  0.44850000  0.29370000  1.0 0.1200619824
C  C93  1  0.44850000  0.12818000  0.70630000  1.0 0.1200619824
C  C94  1  0.55150000  0.87182000  0.20630000  1.0 0.1200619824
C  C95  1  0.37182000  0.94850000  0.95630000  1.0 0.1200619824
C  C96  1  0.62818000  0.05150000  0.45630000  1.0 0.1200619824
C  C97  1  0.26760000  0.88220000  0.14170000  1.0 0.0212439735
C  C98  1  0.73240000  0.11780000  0.64170000  1.0 0.0212439735
C  C99  1  0.38220000  0.23240000  0.89170000  1.0 0.0212439735
C  C100  1  0.61780000  0.76760000  0.39170000  1.0 0.0212439735
C  C101  1  0.76760000  0.61780000  0.60830000  1.0 0.0212439735
C  C102  1  0.23240000  0.38220000  0.10830000  1.0 0.0212439735
C  C103  1  0.88220000  0.26760000  0.85830000  1.0 0.0212439735
C  C104  1  0.11780000  0.73240000  0.35830000  1.0 0.0212439735
C  C105  1  0.99640000  0.32810000  0.00450000  1.0 -0.0210864741
C  C106  1  0.00360000  0.67190000  0.50450000  1.0 -0.0210864741
C  C107  1  0.82810000  0.50360000  0.75450000  1.0 -0.0210864741
C  C108  1  0.17190000  0.49640000  0.25450000  1.0 -0.0210864741
C  C109  1  0.49640000  0.17190000  0.74550000  1.0 -0.0210864741
C  C110  1  0.50360000  0.82810000  0.24550000  1.0 -0.0210864741
C  C111  1  0.32810000  0.99640000  0.99550000  1.0 -0.0210864741
C  C112  1  0.67190000  0.00360000  0.49550000  1.0 -0.0210864741
C  C113  1  0.91530000  0.27620000  0.11850000  1.0 0.0086876478
C  C114  1  0.08470000  0.72380000  0.61850000  1.0 0.0086876478
C  C115  1  0.77620000  0.58470000  0.86850000  1.0 0.0086876478
C  C116  1  0.22380000  0.41530000  0.36850000  1.0 0.0086876478
C  C117  1  0.41530000  0.22380000  0.63150000  1.0 0.0086876478
C  C118  1  0.58470000  0.77620000  0.13150000  1.0 0.0086876478
C  C119  1  0.27620000  0.91530000  0.88150000  1.0 0.0086876478
C  C120  1  0.72380000  0.08470000  0.38150000  1.0 0.0086876478
C  C121  1  0.96450000  0.23190000  0.07920000  1.0 0.0486437337
C  C122  1  0.03550000  0.76810000  0.57920000  1.0 0.0486437337
C  C123  1  0.73190000  0.53550000  0.82920000  1.0 0.0486437337
C  C124  1  0.26810000  0.46450000  0.32920000  1.0 0.0486437337
C  C125  1  0.46450000  0.26810000  0.67080000  1.0 0.0486437337
C  C126  1  0.53550000  0.73190000  0.17080000  1.0 0.0486437337
C  C127  1  0.23190000  0.96450000  0.92080000  1.0 0.0486437337
C  C128  1  0.76810000  0.03550000  0.42080000  1.0 0.0486437337
N  N1  1  0.83261000  0.73514000  0.04401000  1.0 -0.1806341378
N  N2  1  0.16739000  0.26486000  0.54401000  1.0 -0.1806341378
N  N3  1  0.23514000  0.66739000  0.79401000  1.0 -0.1806341378
N  N4  1  0.76486000  0.33261000  0.29401000  1.0 -0.1806341378
N  N5  1  0.33261000  0.76486000  0.70599000  1.0 -0.1806341378
N  N6  1  0.66739000  0.23514000  0.20599000  1.0 -0.1806341378
N  N7  1  0.73514000  0.83261000  0.95599000  1.0 -0.1806341378
N  N8  1  0.26486000  0.16739000  0.45599000  1.0 -0.1806341378
N  N9  1  0.94289000  0.85199000  0.05710000  1.0 -0.2015994132
N  N10  1  0.05711000  0.14801000  0.55710000  1.0 -0.2015994132
N  N11  1  0.35199000  0.55711000  0.80710000  1.0 -0.2015994132
N  N12  1  0.64801000  0.44289000  0.30710000  1.0 -0.2015994132
N  N13  1  0.44289000  0.64801000  0.69290000  1.0 -0.2015994132
N  N14  1  0.55711000  0.35199000  0.19290000  1.0 -0.2015994132
N  N15  1  0.85199000  0.94289000  0.94290000  1.0 -0.2015994132
N  N16  1  0.14801000  0.05711000  0.44290000  1.0 -0.2015994132
N  N17  1  0.81101000  0.88852000  0.10614000  1.0 -0.2015994132
N  N18  1  0.18899000  0.11148000  0.60614000  1.0 -0.2015994132
N  N19  1  0.38852000  0.68899000  0.85614000  1.0 -0.2015994132
N  N20  1  0.61148000  0.31101000  0.35614000  1.0 -0.2015994132
N  N21  1  0.31101000  0.61148000  0.64386000  1.0 -0.2015994132
N  N22  1  0.68899000  0.38852000  0.14386000  1.0 -0.2015994132
N  N23  1  0.88852000  0.81101000  0.89386000  1.0 -0.2015994132
N  N24  1  0.11148000  0.18899000  0.39386000  1.0 -0.2015994132
N  N25  1  0.86860000  0.67761000  0.01160000  1.0 -0.230480204
N  N26  1  0.13140000  0.32239000  0.51160000  1.0 -0.230480204
N  N27  1  0.17761000  0.63140000  0.76160000  1.0 -0.230480204
N  N28  1  0.82239000  0.36860000  0.26160000  1.0 -0.230480204
N  N29  1  0.36860000  0.82239000  0.73840000  1.0 -0.230480204
N  N30  1  0.63140000  0.17761000  0.23840000  1.0 -0.230480204
N  N31  1  0.67761000  0.86860000  0.98840000  1.0 -0.230480204
N  N32  1  0.32239000  0.13140000  0.48840000  1.0 -0.230480204
N  N33  1  0.01638000  0.84072000  0.04223000  1.0 -0.2404697152
N  N34  1  0.98362000  0.15928000  0.54223000  1.0 -0.2404697152
N  N35  1  0.34072000  0.48362000  0.79223000  1.0 -0.2404697152
N  N36  1  0.65928000  0.51638000  0.29223000  1.0 -0.2404697152
N  N37  1  0.51638000  0.65928000  0.70777000  1.0 -0.2404697152
N  N38  1  0.48362000  0.34072000  0.20777000  1.0 -0.2404697152
N  N39  1  0.84072000  0.01638000  0.95777000  1.0 -0.2404697152
N  N40  1  0.15928000  0.98362000  0.45777000  1.0 -0.2404697152
N  N41  1  0.74997000  0.91158000  0.14401000  1.0 -0.1806341378
N  N42  1  0.25003000  0.08842000  0.64401000  1.0 -0.1806341378
N  N43  1  0.41158000  0.75003000  0.89401000  1.0 -0.1806341378
N  N44  1  0.58842000  0.24997000  0.39401000  1.0 -0.1806341378
N  N45  1  0.24997000  0.58842000  0.60599000  1.0 -0.1806341378
N  N46  1  0.75003000  0.41158000  0.10599000  1.0 -0.1806341378
N  N47  1  0.91158000  0.74997000  0.85599000  1.0 -0.1806341378
N  N48  1  0.08842000  0.25003000  0.35599000  1.0 -0.1806341378
N  N49  1  0.81884000  0.63714000  0.11999000  1.0 -0.3768411192
N  N50  1  0.18116000  0.36286000  0.61999000  1.0 -0.3768411192
N  N51  1  0.13714000  0.68116000  0.86999000  1.0 -0.3768411192
N  N52  1  0.86286000  0.31884000  0.36999000  1.0 -0.3768411192
N  N53  1  0.31884000  0.86286000  0.63001000  1.0 -0.3768411192
N  N54  1  0.68116000  0.13714000  0.13001000  1.0 -0.3768411192
N  N55  1  0.63714000  0.81884000  0.88001000  1.0 -0.3768411192
N  N56  1  0.36286000  0.18116000  0.38001000  1.0 -0.3768411192
N  N57  1  0.00420000  0.88967000  0.15910000  1.0 -0.3691738086
N  N58  1  0.99580000  0.11033000  0.65910000  1.0 -0.3691738086
N  N59  1  0.38967000  0.49580000  0.90910000  1.0 -0.3691738086
N  N60  1  0.61033000  0.50420000  0.40910000  1.0 -0.3691738086
N  N61  1  0.50420000  0.61033000  0.59090000  1.0 -0.3691738086
N  N62  1  0.49580000  0.38967000  0.09090000  1.0 -0.3691738086
N  N63  1  0.88967000  0.00420000  0.84090000  1.0 -0.3691738086
N  N64  1  0.11033000  0.99580000  0.34090000  1.0 -0.3691738086
N  N65  1  0.84538000  0.92610000  0.22180000  1.0 -0.3691738086
N  N66  1  0.15462000  0.07390000  0.72180000  1.0 -0.3691738086
N  N67  1  0.42610000  0.65462000  0.97180000  1.0 -0.3691738086
N  N68  1  0.57390000  0.34538000  0.47180000  1.0 -0.3691738086
N  N69  1  0.34538000  0.57390000  0.52820000  1.0 -0.3691738086
N  N70  1  0.65462000  0.42610000  0.02820000  1.0 -0.3691738086
N  N71  1  0.92610000  0.84538000  0.77820000  1.0 -0.3691738086
N  N72  1  0.07390000  0.15462000  0.27820000  1.0 -0.3691738086
N  N73  1  0.93764000  0.55433000  0.97761000  1.0 -0.2015994132
N  N74  1  0.06236000  0.44567000  0.47761000  1.0 -0.2015994132
N  N75  1  0.05433000  0.56236000  0.72761000  1.0 -0.2015994132
N  N76  1  0.94567000  0.43764000  0.22761000  1.0 -0.2015994132
N  N77  1  0.43764000  0.94567000  0.77239000  1.0 -0.2015994132
N  N78  1  0.56236000  0.05433000  0.27239000  1.0 -0.2015994132
N  N79  1  0.55433000  0.93764000  0.02239000  1.0 -0.2015994132
N  N80  1  0.44567000  0.06236000  0.52239000  1.0 -0.2015994132
N  N81  1  0.98923000  0.60880000  0.82118000  1.0 -0.351279697
N  N82  1  0.01077000  0.39120000  0.32118000  1.0 -0.351279697
N  N83  1  0.10880000  0.51077000  0.57118000  1.0 -0.351279697
N  N84  1  0.89120000  0.48923000  0.07118000  1.0 -0.351279697
N  N85  1  0.48923000  0.89120000  0.92882000  1.0 -0.351279697
N  N86  1  0.51077000  0.10880000  0.42882000  1.0 -0.351279697
N  N87  1  0.60880000  0.98923000  0.17882000  1.0 -0.351279697
N  N88  1  0.39120000  0.01077000  0.67882000  1.0 -0.351279697
N  N89  1  0.84600000  0.59309000  0.85140000  1.0 -0.1914832011
N  N90  1  0.15400000  0.40691000  0.35140000  1.0 -0.1914832011
N  N91  1  0.09309000  0.65400000  0.60140000  1.0 -0.1914832011
N  N92  1  0.90691000  0.34600000  0.10140000  1.0 -0.1914832011
N  N93  1  0.34600000  0.90691000  0.89860000  1.0 -0.1914832011
N  N94  1  0.65400000  0.09309000  0.39860000  1.0 -0.1914832011
N  N95  1  0.59309000  0.84600000  0.14860000  1.0 -0.1914832011
N  N96  1  0.40691000  0.15400000  0.64860000  1.0 -0.1914832011
N  N97  1  0.96467000  0.48562000  0.96884000  1.0 -0.2515008232
N  N98  1  0.03533000  0.51438000  0.46884000  1.0 -0.2515008232
N  N99  1  0.98562000  0.53533000  0.71884000  1.0 -0.2515008232
N  N100  1  0.01438000  0.46467000  0.21884000  1.0 -0.2515008232
N  N101  1  0.46467000  0.01438000  0.78116000  1.0 -0.2515008232
N  N102  1  0.53533000  0.98562000  0.28116000  1.0 -0.2515008232
N  N103  1  0.48562000  0.96467000  0.03116000  1.0 -0.2515008232
N  N104  1  0.51438000  0.03533000  0.53116000  1.0 -0.2515008232
N  N105  1  0.14738000  0.90670000  0.17838000  1.0 -0.1914832011
N  N106  1  0.85262000  0.09330000  0.67838000  1.0 -0.1914832011
N  N107  1  0.40670000  0.35262000  0.92838000  1.0 -0.1914832011
N  N108  1  0.59330000  0.64738000  0.42838000  1.0 -0.1914832011
N  N109  1  0.64738000  0.59330000  0.57162000  1.0 -0.1914832011
N  N110  1  0.35262000  0.40670000  0.07162000  1.0 -0.1914832011
N  N111  1  0.90670000  0.14738000  0.82162000  1.0 -0.1914832011
N  N112  1  0.09330000  0.85262000  0.32162000  1.0 -0.1914832011
N  N113  1  0.25070000  0.84700000  0.08020000  1.0 -0.2155096816
N  N114  1  0.74930000  0.15300000  0.58020000  1.0 -0.2149973052
N  N115  1  0.34700000  0.24930000  0.83020000  1.0 -0.2149973052
N  N116  1  0.65300000  0.75070000  0.33020000  1.0 -0.2155096816
N  N117  1  0.75070000  0.65300000  0.66980000  1.0 -0.2149973052
N  N118  1  0.24930000  0.34700000  0.16980000  1.0 -0.2155096816
N  N119  1  0.84700000  0.25070000  0.91980000  1.0 -0.2149973052
N  N120  1  0.15300000  0.74930000  0.41980000  1.0 -0.2149973052
N  N121  1  0.00370000  0.25670000  0.02370000  1.0 -0.2015994132
N  N122  1  0.99630000  0.74330000  0.52370000  1.0 -0.2015994132
N  N123  1  0.75670000  0.49630000  0.77370000  1.0 -0.2015994132
N  N124  1  0.24330000  0.50370000  0.27370000  1.0 -0.2015994132
N  N125  1  0.50370000  0.24330000  0.72630000  1.0 -0.2015994132
N  N126  1  0.49630000  0.75670000  0.22630000  1.0 -0.2015994132
N  N127  1  0.25670000  0.00370000  0.97630000  1.0 -0.2015994132
N  N128  1  0.74330000  0.99630000  0.47630000  1.0 -0.2015994132
