# DDEC6 charges by PACMAN v1.1 (https://github.com/mtap-research/PACMAN-charge/)
data_XOSPEB_ion_pacman
_symmetry_space_group_name_H-M   'P 1'
_cell_length_a   13.78830000
_cell_length_b   13.78830000
_cell_length_c   9.34500000
_cell_angle_alpha   90.00000000
_cell_angle_beta   90.00000000
_cell_angle_gamma   120.00000000
_symmetry_Int_Tables_number   1
_chemical_formula_structural   In4P7H22C3(NO8)3
_chemical_formula_sum   'In8 P14 H44 C6 N6 O48'
_cell_volume   1538.62004285
_cell_formula_units_Z   2
loop_
 _symmetry_equiv_pos_site_id
 _symmetry_equiv_pos_as_xyz
  1  'x, y, z'
loop_
 _atom_site_type_symbol
 _atom_site_label
 _atom_site_symmetry_multiplicity
 _atom_site_fract_x
 _atom_site_fract_y
 _atom_site_fract_z
 _atom_site_occupancy
 _atom_site_charge
In  In1  1  0.00000000  0.00000000  0.50000000  1.0 1.6754220761
In  In2  1  0.85380000  0.29300000  0.92422000  1.0 1.637123807
In  In3  1  0.70700000  0.56080000  0.92422000  1.0 1.637123807
In  In4  1  0.43920000  0.14620000  0.92422000  1.0 1.637123807
In  In5  1  0.14620000  0.70700000  0.07578000  1.0 1.637123807
In  In6  1  0.29300000  0.43920000  0.07578000  1.0 1.637123807
In  In7  1  0.56080000  0.85380000  0.07578000  1.0 1.637123807
In  In8  1  0.00000000  0.00000000  0.00000000  1.0 1.7088204659
P  P1  1  0.66666667  0.33333333  0.72000000  1.0 1.1564103402
P  P2  1  0.33333333  0.66666667  0.28000000  1.0 1.1564103402
P  P3  1  0.87616000  0.50638000  0.11850000  1.0 1.168658439
P  P4  1  0.49362000  0.36978000  0.11850000  1.0 1.168658439
P  P5  1  0.63022000  0.12384000  0.11850000  1.0 1.168658439
P  P6  1  0.12384000  0.49362000  0.88150000  1.0 1.168658439
P  P7  1  0.50638000  0.63022000  0.88150000  1.0 1.168658439
P  P8  1  0.36978000  0.87616000  0.88150000  1.0 1.168658439
P  P9  1  0.97197000  0.16373000  0.74659000  1.0 1.2399396735
P  P10  1  0.83627000  0.80824000  0.74659000  1.0 1.2399396735
P  P11  1  0.19176000  0.02803000  0.74659000  1.0 1.2399396735
P  P12  1  0.02803000  0.83627000  0.25341000  1.0 1.2399396735
P  P13  1  0.16373000  0.19176000  0.25341000  1.0 1.2399396735
P  P14  1  0.80824000  0.97197000  0.25341000  1.0 1.2399396735
H  H1  1  0.66666667  0.33333333  0.57200000  1.0 -0.1101374686
H  H2  1  0.33333333  0.66666667  0.42800000  1.0 -0.1101374686
H  H3  1  0.82100000  0.51600000  0.23500000  1.0 -0.1101374686
H  H4  1  0.48400000  0.30500000  0.23500000  1.0 -0.1101374686
H  H5  1  0.69500000  0.17900000  0.23500000  1.0 -0.1101374686
H  H6  1  0.17900000  0.48400000  0.76500000  1.0 -0.1101374686
H  H7  1  0.51600000  0.69500000  0.76500000  1.0 -0.1101374686
H  H8  1  0.30500000  0.82100000  0.76500000  1.0 -0.1101374686
H  H9  1  0.06200000  0.26800000  0.70600000  1.0 -0.1101374686
H  H10  1  0.73200000  0.79400000  0.70600000  1.0 -0.1101374686
H  H11  1  0.20600000  0.93800000  0.70600000  1.0 -0.1101374686
H  H12  1  0.93800000  0.73200000  0.29400000  1.0 -0.1101374686
H  H13  1  0.26800000  0.20600000  0.29400000  1.0 -0.1101374686
H  H14  1  0.79400000  0.06200000  0.29400000  1.0 -0.1101374686
H  H15  1  0.62030000  0.05130000  0.71370000  1.0 0.269699405
H  H16  1  0.37970000  0.94870000  0.28630000  1.0 0.269699405
H  H17  1  0.70360000  0.10570000  0.60190000  1.0 0.269699405
H  H18  1  0.29640000  0.89430000  0.39810000  1.0 0.269699405
H  H19  1  0.64690000  0.98470000  0.61810000  1.0 0.269699405
H  H20  1  0.35310000  0.01530000  0.38190000  1.0 0.269699405
H  H21  1  0.53310000  0.09480000  0.54290000  1.0 0.1183801461
H  H22  1  0.46690000  0.90520000  0.45710000  1.0 0.1183801461
H  H23  1  0.58220000  0.05390000  0.42520000  1.0 0.1183801461
H  H24  1  0.41780000  0.94610000  0.57480000  1.0 0.1183801461
H  H25  1  0.43100000  0.37970000  0.71370000  1.0 0.269699405
H  H26  1  0.56900000  0.62030000  0.28630000  1.0 0.269699405
H  H27  1  0.40210000  0.29640000  0.60190000  1.0 0.269699405
H  H28  1  0.59790000  0.70360000  0.39810000  1.0 0.269699405
H  H29  1  0.33780000  0.35310000  0.61810000  1.0 0.269699405
H  H30  1  0.66220000  0.64690000  0.38190000  1.0 0.269699405
H  H31  1  0.56170000  0.46690000  0.54290000  1.0 0.1183801461
H  H32  1  0.43830000  0.53310000  0.45710000  1.0 0.1183801461
H  H33  1  0.47170000  0.41780000  0.42520000  1.0 0.1183801461
H  H34  1  0.52830000  0.58220000  0.57480000  1.0 0.1183801461
H  H35  1  0.94870000  0.56900000  0.71370000  1.0 0.269699405
H  H36  1  0.05130000  0.43100000  0.28630000  1.0 0.269699405
H  H37  1  0.89430000  0.59790000  0.60190000  1.0 0.269699405
H  H38  1  0.10570000  0.40210000  0.39810000  1.0 0.269699405
H  H39  1  0.01530000  0.66220000  0.61810000  1.0 0.269699405
H  H40  1  0.98470000  0.33780000  0.38190000  1.0 0.269699405
H  H41  1  0.90520000  0.43830000  0.54290000  1.0 0.1183801461
H  H42  1  0.09480000  0.56170000  0.45710000  1.0 0.1183801461
H  H43  1  0.94610000  0.52830000  0.42520000  1.0 0.1183801461
H  H44  1  0.05390000  0.47170000  0.57480000  1.0 0.1183801461
C  C1  1  0.54300000  0.03230000  0.51600000  1.0 -0.0846485727
C  C2  1  0.45700000  0.96770000  0.48400000  1.0 -0.0853999742
C  C3  1  0.48930000  0.45700000  0.51600000  1.0 -0.0846485727
C  C4  1  0.51070000  0.54300000  0.48400000  1.0 -0.0846485727
C  C5  1  0.96770000  0.51070000  0.51600000  1.0 -0.0846485727
C  C6  1  0.03230000  0.48930000  0.48400000  1.0 -0.0846485727
N  N1  1  0.63920000  0.04490000  0.62500000  1.0 -0.4013195101
N  N2  1  0.36080000  0.95510000  0.37500000  1.0 -0.4013195101
N  N3  1  0.40570000  0.36080000  0.62500000  1.0 -0.4013195101
N  N4  1  0.59430000  0.63920000  0.37500000  1.0 -0.4013195101
N  N5  1  0.95510000  0.59430000  0.62500000  1.0 -0.4013195101
N  N6  1  0.04490000  0.40570000  0.37500000  1.0 -0.4013195101
O  O1  1  0.92930000  0.07550000  0.62880000  1.0 -0.748368647
O  O2  1  0.92450000  0.85380000  0.62880000  1.0 -0.748368647
O  O3  1  0.14620000  0.07070000  0.62880000  1.0 -0.748368647
O  O4  1  0.07070000  0.92450000  0.37120000  1.0 -0.748368647
O  O5  1  0.07550000  0.14620000  0.37120000  1.0 -0.748368647
O  O6  1  0.85380000  0.92930000  0.37120000  1.0 -0.748368647
O  O7  1  0.83140000  0.38510000  0.08570000  1.0 -0.7029567722
O  O8  1  0.61490000  0.44630000  0.08570000  1.0 -0.7029567722
O  O9  1  0.55370000  0.16860000  0.08570000  1.0 -0.7029567722
O  O10  1  0.16860000  0.61490000  0.91430000  1.0 -0.7029567722
O  O11  1  0.38510000  0.55370000  0.91430000  1.0 -0.7029567722
O  O12  1  0.44630000  0.83140000  0.91430000  1.0 -0.7029567722
O  O13  1  0.85540000  0.56820000  0.99820000  1.0 -0.6529167754
O  O14  1  0.43180000  0.28720000  0.99820000  1.0 -0.6529167754
O  O15  1  0.71280000  0.14460000  0.99820000  1.0 -0.6529167754
O  O16  1  0.14460000  0.43180000  0.00180000  1.0 -0.6529167754
O  O17  1  0.56820000  0.71280000  0.00180000  1.0 -0.6529167754
O  O18  1  0.28720000  0.85540000  0.00180000  1.0 -0.6529167754
O  O19  1  0.00050000  0.56710000  0.15560000  1.0 -0.7326728565
O  O20  1  0.43290000  0.43340000  0.15560000  1.0 -0.7326728565
O  O21  1  0.56660000  0.99950000  0.15560000  1.0 -0.7326728565
O  O22  1  0.99950000  0.43290000  0.84440000  1.0 -0.7326728565
O  O23  1  0.56710000  0.56660000  0.84440000  1.0 -0.7326728565
O  O24  1  0.43340000  0.00050000  0.84440000  1.0 -0.7326728565
O  O25  1  0.75990000  0.31260000  0.76060000  1.0 -0.7197384996
O  O26  1  0.68740000  0.44730000  0.76060000  1.0 -0.7197384996
O  O27  1  0.55270000  0.24010000  0.76060000  1.0 -0.7197384996
O  O28  1  0.24010000  0.68740000  0.23940000  1.0 -0.7197384996
O  O29  1  0.31260000  0.55270000  0.23940000  1.0 -0.7197384996
O  O30  1  0.44730000  0.75990000  0.23940000  1.0 -0.7197384996
O  O31  1  0.02790000  0.14050000  0.87210000  1.0 -0.6529167754
O  O32  1  0.85950000  0.88740000  0.87210000  1.0 -0.6529167754
O  O33  1  0.11260000  0.97210000  0.87210000  1.0 -0.6529167754
O  O34  1  0.97210000  0.85950000  0.12790000  1.0 -0.6529167754
O  O35  1  0.14050000  0.11260000  0.12790000  1.0 -0.6529167754
O  O36  1  0.88740000  0.02790000  0.12790000  1.0 -0.6529167754
O  O37  1  0.94730000  0.25550000  0.09400000  1.0 -0.420731517
O  O38  1  0.74450000  0.69180000  0.09400000  1.0 -0.420731517
O  O39  1  0.30820000  0.05270000  0.09400000  1.0 -0.420731517
O  O40  1  0.05270000  0.74450000  0.90600000  1.0 -0.4253109657
O  O41  1  0.25550000  0.30820000  0.90600000  1.0 -0.420731517
O  O42  1  0.69180000  0.94730000  0.90600000  1.0 -0.420731517
O  O43  1  0.87630000  0.18110000  0.79150000  1.0 -0.6669451359
O  O44  1  0.81890000  0.69520000  0.79150000  1.0 -0.6669451359
O  O45  1  0.30480000  0.12370000  0.79150000  1.0 -0.6669451359
O  O46  1  0.12370000  0.81890000  0.20850000  1.0 -0.6669451359
O  O47  1  0.18110000  0.30480000  0.20850000  1.0 -0.6669451359
O  O48  1  0.69520000  0.87630000  0.20850000  1.0 -0.6669451359
