# DDEC6 charges by PACMAN v1.1 (https://github.com/mtap-research/PACMAN-charge/)
data_XOSPOK_ion_pacman
_symmetry_space_group_name_H-M   'P 1'
_cell_length_a   9.98400000
_cell_length_b   12.35400000
_cell_length_c   12.83400000
_cell_angle_alpha   88.32000000
_cell_angle_beta   105.43000000
_cell_angle_gamma   104.19000000
_symmetry_Int_Tables_number   1
_chemical_formula_structural   Zn6P5H22C8(NO7)3
_chemical_formula_sum   'Zn12 P10 H44 C16 N6 O42'
_cell_volume   1478.26832122
_cell_formula_units_Z   2
loop_
 _symmetry_equiv_pos_site_id
 _symmetry_equiv_pos_as_xyz
  1  'x, y, z'
loop_
 _atom_site_type_symbol
 _atom_site_label
 _atom_site_symmetry_multiplicity
 _atom_site_fract_x
 _atom_site_fract_y
 _atom_site_fract_z
 _atom_site_occupancy
 _atom_site_charge
Zn  Zn1  1  0.14229000  0.26149000  0.76524000  1.0 1.0771597831
Zn  Zn2  1  0.85771000  0.73851000  0.23476000  1.0 1.0736890047
Zn  Zn3  1  0.93247000  0.02401000  0.61970000  1.0 1.0736890047
Zn  Zn4  1  0.06753000  0.97599000  0.38030000  1.0 1.0736890047
Zn  Zn5  1  0.52642000  0.26107000  0.74347000  1.0 1.0868629027
Zn  Zn6  1  0.47358000  0.73893000  0.25653000  1.0 1.0868629027
Zn  Zn7  1  0.85309000  0.42805000  0.59987000  1.0 1.0868629027
Zn  Zn8  1  0.14691000  0.57195000  0.40013000  1.0 1.0868629027
Zn  Zn9  1  0.34002000  0.38926000  0.53622000  1.0 1.0771597831
Zn  Zn10  1  0.65998000  0.61074000  0.46378000  1.0 1.0771597831
Zn  Zn11  1  0.45874000  0.55773000  0.84915000  1.0 1.0490525771
Zn  Zn12  1  0.54126000  0.44227000  0.15085000  1.0 1.0490525771
P  P1  1  0.81200000  0.20473000  0.70639000  1.0 1.5088135808
P  P2  1  0.18800000  0.79527000  0.29361000  1.0 1.5088135808
P  P3  1  0.22059000  0.14054000  0.58569000  1.0 1.5354534198
P  P4  1  0.77941000  0.85946000  0.41431000  1.0 1.5348421146
P  P5  1  0.62959000  0.50720000  0.68695000  1.0 1.5088135808
P  P6  1  0.37041000  0.49280000  0.31305000  1.0 1.5088135808
P  P7  1  0.19950000  0.50232000  0.65057000  1.0 1.5354534198
P  P8  1  0.80050000  0.49768000  0.34943000  1.0 1.5348421146
P  P9  1  0.41204000  0.31490000  0.93933000  1.0 1.5088135808
P  P10  1  0.58796000  0.68510000  0.06067000  1.0 1.5088135808
H  H1  1  0.17210000  0.60480000  0.06440000  1.0 0.1417245154
H  H2  1  0.82790000  0.39520000  0.93560000  1.0 0.1417245154
H  H3  1  0.24230000  0.51390000  0.03390000  1.0 0.1602746261
H  H4  1  0.75770000  0.48610000  0.96610000  1.0 0.1602746261
H  H5  1  0.13490000  0.59080000  0.88660000  1.0 0.1602746261
H  H6  1  0.86510000  0.40920000  0.11340000  1.0 0.1602746261
H  H7  1  0.06350000  0.46280000  0.88620000  1.0 0.1497190731
H  H8  1  0.93650000  0.53720000  0.11380000  1.0 0.1497190731
H  H9  1  0.16920000  0.32960000  0.07430000  1.0 0.1659315486
H  H10  1  0.83080000  0.67040000  0.92570000  1.0 0.1659315486
H  H11  1  0.02130000  0.31370000  0.98740000  1.0 0.1497190731
H  H12  1  0.97870000  0.68630000  0.01260000  1.0 0.1497190731
H  H13  1  0.02660000  0.27580000  0.10580000  1.0 0.1602746261
H  H14  1  0.97340000  0.72420000  0.89420000  1.0 0.1602746261
H  H15  1  0.10790000  0.45310000  0.16410000  1.0 0.2900648523
H  H16  1  0.89210000  0.54690000  0.83590000  1.0 0.2900648523
H  H17  1  0.37790000  0.25500000  0.26620000  1.0 0.1497190731
H  H18  1  0.28800000  0.16880000  0.32850000  1.0 0.1497190731
H  H19  1  0.47400000  0.15690000  0.45780000  1.0 0.1417245154
H  H20  1  0.51600000  0.28260000  0.42990000  1.0 0.1602746261
H  H21  1  0.70910000  0.12380000  0.28980000  1.0 0.1497190731
H  H22  1  0.62140000  0.03700000  0.35310000  1.0 0.1497190731
H  H23  1  0.48360000  0.00590000  0.19310000  1.0 0.1497190731
H  H24  1  0.52550000  0.13020000  0.16130000  1.0 0.1497190731
H  H25  1  0.24440000  0.02170000  0.08950000  1.0 0.1602746261
H  H26  1  0.15820000  0.07200000  0.15310000  1.0 0.1602746261
H  H27  1  0.25810000  0.15080000  0.09170000  1.0 0.1602746261
H  H28  1  0.33780000  0.03650000  0.26680000  1.0 0.2744026292
H  H29  1  0.67460000  0.25730000  0.36480000  1.0 0.3003963937
H  H30  1  0.68450000  0.18050000  0.45230000  1.0 0.3003963937
H  H31  1  0.62210000  0.74500000  0.73380000  1.0 0.1497190731
H  H32  1  0.71200000  0.83120000  0.67150000  1.0 0.1497190731
H  H33  1  0.52600000  0.84310000  0.54220000  1.0 0.1417245154
H  H34  1  0.48400000  0.71740000  0.57010000  1.0 0.1602746261
H  H35  1  0.29090000  0.87620000  0.71020000  1.0 0.1497190731
H  H36  1  0.37860000  0.96300000  0.64690000  1.0 0.1497190731
H  H37  1  0.51640000  0.99410000  0.80690000  1.0 0.1497190731
H  H38  1  0.47450000  0.86980000  0.83870000  1.0 0.1497190731
H  H39  1  0.75560000  0.97830000  0.91050000  1.0 0.1602746261
H  H40  1  0.84180000  0.92800000  0.84690000  1.0 0.1602746261
H  H41  1  0.74190000  0.84920000  0.90830000  1.0 0.1602746261
H  H42  1  0.66220000  0.96350000  0.73320000  1.0 0.2744026292
H  H43  1  0.32540000  0.74270000  0.63520000  1.0 0.3003963937
H  H44  1  0.31550000  0.81950000  0.54770000  1.0 0.3003963937
C  C1  1  0.15160000  0.53170000  0.02980000  1.0 -0.1023252833
C  C2  1  0.84840000  0.46830000  0.97020000  1.0 -0.1023252833
C  C3  1  0.07730000  0.53450000  0.92170000  1.0 -0.1023252833
C  C4  1  0.92270000  0.46550000  0.07830000  1.0 -0.1023252833
C  C5  1  0.07050000  0.33060000  0.06240000  1.0 -0.3012069951
C  C6  1  0.92950000  0.66940000  0.93760000  1.0 -0.3012069951
C  C7  1  0.37530000  0.18630000  0.30500000  1.0 -0.1023252833
C  C8  1  0.49950000  0.20680000  0.40250000  1.0 -0.09154911
C  C9  1  0.62210000  0.10530000  0.31370000  1.0 -0.073315252
C  C10  1  0.49980000  0.08260000  0.21790000  1.0 -0.1023252833
C  C11  1  0.24650000  0.08450000  0.13270000  1.0 -0.3012069951
C  C12  1  0.62470000  0.81370000  0.69500000  1.0 -0.1023252833
C  C13  1  0.50050000  0.79320000  0.59750000  1.0 -0.09154911
C  C14  1  0.37790000  0.89470000  0.68630000  1.0 -0.073315252
C  C15  1  0.50020000  0.91740000  0.78210000  1.0 -0.1023252833
C  C16  1  0.75350000  0.91550000  0.86730000  1.0 -0.3012069951
N  N1  1  0.06170000  0.44110000  0.09240000  1.0 0.0514257975
N  N2  1  0.93830000  0.55890000  0.90760000  1.0 0.0514257975
N  N3  1  0.36710000  0.09830000  0.23050000  1.0 0.0514257975
N  N4  1  0.62910000  0.19250000  0.38730000  1.0 -0.1454151164
N  N5  1  0.63290000  0.90170000  0.76950000  1.0 0.0514257975
N  N6  1  0.37090000  0.80750000  0.61270000  1.0 -0.1454151164
O  O1  1  0.10840000  0.14360000  0.65050000  1.0 -0.7896330964
O  O2  1  0.89160000  0.85640000  0.34950000  1.0 -0.7896330964
O  O3  1  0.95720000  0.25970000  0.78370000  1.0 -0.8199673485
O  O4  1  0.04280000  0.74030000  0.21630000  1.0 -0.8199673485
O  O5  1  0.27290000  0.22310000  0.89420000  1.0 -0.7896330964
O  O6  1  0.72710000  0.77690000  0.10580000  1.0 -0.7896330964
O  O7  1  0.21720000  0.38710000  0.68620000  1.0 -0.8311392556
O  O8  1  0.78280000  0.61290000  0.31380000  1.0 -0.8311392556
O  O9  1  0.80280000  0.08190000  0.67850000  1.0 -0.8003440912
O  O10  1  0.19720000  0.91810000  0.32150000  1.0 -0.8003440912
O  O11  1  0.16780000  0.02820000  0.52370000  1.0 -0.8003440912
O  O12  1  0.83220000  0.97180000  0.47630000  1.0 -0.8003440912
O  O13  1  0.99450000  0.90560000  0.71760000  1.0 -0.7138073932
O  O14  1  0.00550000  0.09440000  0.28240000  1.0 -0.7138073932
O  O15  1  0.69480000  0.20350000  0.76270000  1.0 -0.8003440912
O  O16  1  0.30520000  0.79650000  0.23730000  1.0 -0.8003440912
O  O17  1  0.51820000  0.39290000  0.65300000  1.0 -0.8199673485
O  O18  1  0.48180000  0.60710000  0.34700000  1.0 -0.8199673485
O  O19  1  0.52800000  0.29960000  0.88790000  1.0 -0.8104845475
O  O20  1  0.47200000  0.70040000  0.11210000  1.0 -0.8104845475
O  O21  1  0.36550000  0.14790000  0.66420000  1.0 -0.8104845475
O  O22  1  0.63450000  0.85210000  0.33580000  1.0 -0.8104845475
O  O23  1  0.79000000  0.26800000  0.59980000  1.0 -0.8311392556
O  O24  1  0.21000000  0.73200000  0.40020000  1.0 -0.8311392556
O  O25  1  0.78020000  0.48680000  0.70800000  1.0 -0.7896330964
O  O26  1  0.21980000  0.51320000  0.29200000  1.0 -0.7896330964
O  O27  1  0.04820000  0.51670000  0.63530000  1.0 -0.8003440912
O  O28  1  0.95180000  0.48330000  0.36470000  1.0 -0.8003440912
O  O29  1  0.22340000  0.23580000  0.50770000  1.0 -0.7532262992
O  O30  1  0.77660000  0.76420000  0.49230000  1.0 -0.7532262992
O  O31  1  0.23910000  0.51280000  0.53950000  1.0 -0.8104845475
O  O32  1  0.76090000  0.48720000  0.46050000  1.0 -0.8104845475
O  O33  1  0.59910000  0.58450000  0.59470000  1.0 -0.7896330964
O  O34  1  0.40090000  0.41550000  0.40530000  1.0 -0.7896330964
O  O35  1  0.61930000  0.55370000  0.79170000  1.0 -0.7825918983
O  O36  1  0.38070000  0.44630000  0.20830000  1.0 -0.7825918983
O  O37  1  0.30550000  0.59520000  0.72910000  1.0 -0.7825918983
O  O38  1  0.69450000  0.40480000  0.27090000  1.0 -0.7825918983
O  O39  1  0.37620000  0.42820000  0.91780000  1.0 -0.8455344628
O  O40  1  0.62380000  0.57180000  0.08220000  1.0 -0.8455344628
O  O41  1  0.46700000  0.30370000  0.06210000  1.0 -0.7896330964
O  O42  1  0.53300000  0.69630000  0.93790000  1.0 -0.7896330964
