# DDEC6 charges by PACMAN v1.1 (https://github.com/mtap-research/PACMAN-charge/)
data_XOSQOL_ion_pacman
_symmetry_space_group_name_H-M   'P 1'
_cell_length_a   12.65280000
_cell_length_b   5.19090000
_cell_length_c   21.14570000
_cell_angle_alpha   90.00000000
_cell_angle_beta   95.08800000
_cell_angle_gamma   90.00000000
_symmetry_Int_Tables_number   1
_chemical_formula_structural   Zn3P3H10C2NO12
_chemical_formula_sum   'Zn12 P12 H40 C8 N4 O48'
_cell_volume   1383.36481232
_cell_formula_units_Z   4
loop_
 _symmetry_equiv_pos_site_id
 _symmetry_equiv_pos_as_xyz
  1  'x, y, z'
loop_
 _atom_site_type_symbol
 _atom_site_label
 _atom_site_symmetry_multiplicity
 _atom_site_fract_x
 _atom_site_fract_y
 _atom_site_fract_z
 _atom_site_occupancy
 _atom_site_charge
Zn  Zn1  1  0.99403000  0.78490000  0.92946000  1.0 1.073859321
Zn  Zn2  1  0.00597000  0.28490000  0.57054000  1.0 1.073859321
Zn  Zn3  1  0.00597000  0.21510000  0.07054000  1.0 1.073859321
Zn  Zn4  1  0.99403000  0.71510000  0.42946000  1.0 1.073859321
Zn  Zn5  1  0.00112000  0.26689000  0.82728000  1.0 1.081025349
Zn  Zn6  1  0.99888000  0.76689000  0.67272000  1.0 1.081025349
Zn  Zn7  1  0.99888000  0.73311000  0.17272000  1.0 1.081025349
Zn  Zn8  1  0.00112000  0.23311000  0.32728000  1.0 1.081025349
Zn  Zn9  1  0.60065000  0.22196000  0.94535000  1.0 1.1255184878
Zn  Zn10  1  0.39935000  0.72196000  0.55465000  1.0 1.1255184878
Zn  Zn11  1  0.39935000  0.77804000  0.05465000  1.0 1.12439196
Zn  Zn12  1  0.60065000  0.27804000  0.44535000  1.0 1.1255184878
P  P1  1  0.86002000  0.26768000  0.94749000  1.0 1.5736079683
P  P2  1  0.13998000  0.76768000  0.55251000  1.0 1.5736079683
P  P3  1  0.13998000  0.73232000  0.05251000  1.0 1.5736079683
P  P4  1  0.86002000  0.23232000  0.44749000  1.0 1.5736079683
P  P5  1  0.12672000  0.75817000  0.81341000  1.0 1.4765388538
P  P6  1  0.87328000  0.25817000  0.68659000  1.0 1.4765388538
P  P7  1  0.87328000  0.24183000  0.18659000  1.0 1.4765388538
P  P8  1  0.12672000  0.74183000  0.31341000  1.0 1.4765388538
P  P9  1  0.52779000  0.29911000  0.08318000  1.0 1.5171150138
P  P10  1  0.47221000  0.79911000  0.41682000  1.0 1.5171150138
P  P11  1  0.47221000  0.70089000  0.91682000  1.0 1.5171150138
P  P12  1  0.52779000  0.20089000  0.58318000  1.0 1.5171150138
H  H1  1  0.27730000  0.75050000  0.83930000  1.0 0.2926319187
H  H2  1  0.72270000  0.25050000  0.66070000  1.0 0.2926319187
H  H3  1  0.72270000  0.24950000  0.16070000  1.0 0.2926319187
H  H4  1  0.27730000  0.74950000  0.33930000  1.0 0.2926319187
H  H5  1  0.64740000  0.21690000  0.14890000  1.0 0.3144809474
H  H6  1  0.35260000  0.71690000  0.35110000  1.0 0.3144809474
H  H7  1  0.35260000  0.78310000  0.85110000  1.0 0.3144809474
H  H8  1  0.64740000  0.28310000  0.64890000  1.0 0.3150499035
H  H9  1  0.72570000  0.47370000  0.34000000  1.0 0.2663048376
H  H10  1  0.75990000  0.46230000  0.27630000  1.0 0.2644754518
H  H11  1  0.59510000  0.29800000  0.27430000  1.0 0.1418345292
H  H12  1  0.59310000  0.54920000  0.23300000  1.0 0.1476423387
H  H13  1  0.55650000  0.55840000  0.30190000  1.0 0.1476423387
H  H14  1  0.80980000  0.84000000  0.32010000  1.0 0.1418345292
H  H15  1  0.69080000  0.89750000  0.33010000  1.0 0.1476423387
H  H16  1  0.72740000  0.88530000  0.26130000  1.0 0.1418345292
H  H17  1  0.27430000  0.97370000  0.16000000  1.0 0.2663048376
H  H18  1  0.24010000  0.96230000  0.22370000  1.0 0.2644754518
H  H19  1  0.40490000  0.79800000  0.22570000  1.0 0.1418345292
H  H20  1  0.40690000  0.04920000  0.26700000  1.0 0.1476423387
H  H21  1  0.44350000  0.05840000  0.19810000  1.0 0.1476423387
H  H22  1  0.19020000  0.34000000  0.17990000  1.0 0.1418345292
H  H23  1  0.30920000  0.39750000  0.16990000  1.0 0.1476423387
H  H24  1  0.27260000  0.38530000  0.23870000  1.0 0.1418345292
H  H25  1  0.27430000  0.52630000  0.66000000  1.0 0.2663048376
H  H26  1  0.24010000  0.53770000  0.72370000  1.0 0.2644754518
H  H27  1  0.40490000  0.70200000  0.72570000  1.0 0.1418345292
H  H28  1  0.40690000  0.45080000  0.76700000  1.0 0.1476423387
H  H29  1  0.44350000  0.44160000  0.69810000  1.0 0.1476423387
H  H30  1  0.19020000  0.16000000  0.67990000  1.0 0.1418345292
H  H31  1  0.30920000  0.10250000  0.66990000  1.0 0.1476423387
H  H32  1  0.27260000  0.11470000  0.73870000  1.0 0.1418345292
H  H33  1  0.72570000  0.02630000  0.84000000  1.0 0.2663048376
H  H34  1  0.75990000  0.03770000  0.77630000  1.0 0.2644754518
H  H35  1  0.59510000  0.20200000  0.77430000  1.0 0.1418345292
H  H36  1  0.59310000  0.95080000  0.73300000  1.0 0.1476423387
H  H37  1  0.55650000  0.94160000  0.80190000  1.0 0.1476423387
H  H38  1  0.80980000  0.66000000  0.82010000  1.0 0.1418345292
H  H39  1  0.69080000  0.60250000  0.83010000  1.0 0.1476423387
H  H40  1  0.72740000  0.61470000  0.76130000  1.0 0.1418345292
C  C1  1  0.60530000  0.48130000  0.27530000  1.0 -0.2918394375
C  C2  1  0.73760000  0.81390000  0.30330000  1.0 -0.2918394375
C  C3  1  0.39470000  0.98130000  0.22470000  1.0 -0.2918394375
C  C4  1  0.26240000  0.31390000  0.19670000  1.0 -0.2918394375
C  C5  1  0.39470000  0.51870000  0.72470000  1.0 -0.2918394375
C  C6  1  0.26240000  0.18610000  0.69670000  1.0 -0.2918394375
C  C7  1  0.60530000  0.01870000  0.77530000  1.0 -0.2918394375
C  C8  1  0.73760000  0.68610000  0.80330000  1.0 -0.2918394375
N  N1  1  0.71450000  0.53980000  0.30066000  1.0 -0.0808020215
N  N2  1  0.28550000  0.03980000  0.19934000  1.0 -0.0808020215
N  N3  1  0.28550000  0.46020000  0.69934000  1.0 -0.0808020215
N  N4  1  0.71450000  0.96020000  0.80066000  1.0 -0.0808020215
O  O1  1  0.88434000  0.55430000  0.95048000  1.0 -0.7997001723
O  O2  1  0.11566000  0.05430000  0.54952000  1.0 -0.7997001723
O  O3  1  0.11566000  0.44570000  0.04952000  1.0 -0.7997001723
O  O4  1  0.88434000  0.94570000  0.45048000  1.0 -0.7997001723
O  O5  1  0.88227000  0.14270000  0.01308000  1.0 -0.7900932561
O  O6  1  0.11773000  0.64270000  0.48692000  1.0 -0.7900932561
O  O7  1  0.11773000  0.85730000  0.98692000  1.0 -0.7900932561
O  O8  1  0.88227000  0.35730000  0.51308000  1.0 -0.7900932561
O  O9  1  0.03717000  0.62530000  0.84927000  1.0 -0.7997001723
O  O10  1  0.96283000  0.12530000  0.65073000  1.0 -0.7997001723
O  O11  1  0.96283000  0.37470000  0.15073000  1.0 -0.7997001723
O  O12  1  0.03717000  0.87470000  0.34927000  1.0 -0.7997001723
O  O13  1  0.93456000  0.12980000  0.90245000  1.0 -0.8320804219
O  O14  1  0.06544000  0.62980000  0.59755000  1.0 -0.8320804219
O  O15  1  0.06544000  0.87020000  0.09755000  1.0 -0.8320804219
O  O16  1  0.93456000  0.37020000  0.40245000  1.0 -0.8320804219
O  O17  1  0.10170000  0.70370000  0.74236000  1.0 -0.8053938678
O  O18  1  0.89830000  0.20370000  0.75764000  1.0 -0.8053938678
O  O19  1  0.89830000  0.29630000  0.25764000  1.0 -0.7997001723
O  O20  1  0.10170000  0.79630000  0.24236000  1.0 -0.8053938678
O  O21  1  0.12340000  0.04450000  0.82912000  1.0 -0.7800922747
O  O22  1  0.87660000  0.54450000  0.67088000  1.0 -0.7800922747
O  O23  1  0.87660000  0.95550000  0.17088000  1.0 -0.7800922747
O  O24  1  0.12340000  0.45550000  0.32912000  1.0 -0.7800922747
O  O25  1  0.60570000  0.32910000  0.03265000  1.0 -0.7800922747
O  O26  1  0.39430000  0.82910000  0.46735000  1.0 -0.7800922747
O  O27  1  0.39430000  0.67090000  0.96735000  1.0 -0.7800922747
O  O28  1  0.60570000  0.17090000  0.53265000  1.0 -0.7800922747
O  O29  1  0.43111000  0.13880000  0.06135000  1.0 -0.7997001723
O  O30  1  0.56889000  0.63880000  0.43865000  1.0 -0.7997001723
O  O31  1  0.56889000  0.86120000  0.93865000  1.0 -0.7997001723
O  O32  1  0.43111000  0.36120000  0.56135000  1.0 -0.7997001723
O  O33  1  0.49500000  0.56070000  0.10692000  1.0 -0.7900932561
O  O34  1  0.50500000  0.06070000  0.39308000  1.0 -0.7900932561
O  O35  1  0.50500000  0.43930000  0.89308000  1.0 -0.7900932561
O  O36  1  0.49500000  0.93930000  0.60692000  1.0 -0.7900932561
O  O37  1  0.74593000  0.21980000  0.92013000  1.0 -0.7900932561
O  O38  1  0.25407000  0.71980000  0.57987000  1.0 -0.7900932561
O  O39  1  0.25407000  0.78020000  0.07987000  1.0 -0.7900932561
O  O40  1  0.74593000  0.28020000  0.42013000  1.0 -0.7900932561
O  O41  1  0.23193000  0.63780000  0.83433000  1.0 -0.5864394437
O  O42  1  0.76807000  0.13780000  0.66567000  1.0 -0.5864394437
O  O43  1  0.76807000  0.36220000  0.16567000  1.0 -0.5864394437
O  O44  1  0.23193000  0.86220000  0.33433000  1.0 -0.5864394437
O  O45  1  0.58923000  0.14990000  0.14023000  1.0 -0.6373133193
O  O46  1  0.41077000  0.64990000  0.35977000  1.0 -0.6373133193
O  O47  1  0.41077000  0.85010000  0.85977000  1.0 -0.6373133193
O  O48  1  0.58923000  0.35010000  0.64023000  1.0 -0.6373133193
