# DDEC6 charges by PACMAN v1.1 (https://github.com/mtap-research/PACMAN-charge/)
data_XOTZIR_FSR_pacman
_symmetry_space_group_name_H-M   'P 1'
_cell_length_a   8.81100000
_cell_length_b   10.95100000
_cell_length_c   21.94400000
_cell_angle_alpha   102.84800000
_cell_angle_beta   87.70300000
_cell_angle_gamma   101.74900000
_symmetry_Int_Tables_number   1
_chemical_formula_structural   YbH13(C10O3)2
_chemical_formula_sum   'Yb4 H52 C80 O24'
_cell_volume   2021.06875275
_cell_formula_units_Z   4
loop_
 _symmetry_equiv_pos_site_id
 _symmetry_equiv_pos_as_xyz
  1  'x, y, z'
loop_
 _atom_site_type_symbol
 _atom_site_label
 _atom_site_symmetry_multiplicity
 _atom_site_fract_x
 _atom_site_fract_y
 _atom_site_fract_z
 _atom_site_occupancy
 _atom_site_charge
Yb  Yb1  1  0.71320000  0.46580000  0.50482000  1.0 0.5879817151
Yb  Yb2  1  0.28680000  0.53420000  0.49518000  1.0 0.5734890842
Yb  Yb3  1  0.72300000  0.36470000  0.51071000  1.0 0.6783217334
Yb  Yb4  1  0.27700000  0.63530000  0.48929000  1.0 0.6891006374
H  H1  1  0.20050000  0.50920000  0.32710000  1.0 0.1285809269
H  H2  1  0.79950000  0.49080000  0.67290000  1.0 0.1285809269
H  H3  1  0.24630000  0.43790000  0.22090000  1.0 0.1202063024
H  H4  1  0.75370000  0.56210000  0.77910000  1.0 0.1202063024
H  H5  1  0.88760000  0.14590000  0.21450000  1.0 0.1285809269
H  H6  1  0.11240000  0.85410000  0.78550000  1.0 0.1285809269
H  H7  1  0.83640000  0.22130000  0.31780000  1.0 0.1285809269
H  H8  1  0.16360000  0.77870000  0.68220000  1.0 0.1285809269
H  H9  1  0.02040000  0.17910000  0.11550000  1.0 0.1285809269
H  H10  1  0.97960000  0.82090000  0.88450000  1.0 0.1285809269
H  H11  1  0.32790000  0.29160000  0.14050000  1.0 0.1285809269
H  H12  1  0.67210000  0.70840000  0.85950000  1.0 0.1285809269
H  H13  1  0.55830000  0.13710000  0.95370000  1.0 0.1285809269
H  H14  1  0.44170000  0.86290000  0.04630000  1.0 0.1285809269
H  H15  1  0.06230000  0.18420000  0.01510000  1.0 0.1285809269
H  H16  1  0.93770000  0.81580000  0.98490000  1.0 0.1285809269
H  H17  1  0.30280000  0.07540000  0.82530000  1.0 0.1202063024
H  H18  1  0.69720000  0.92460000  0.17470000  1.0 0.1202063024
H  H19  1  0.57040000  0.01410000  0.86150000  1.0 0.1202063024
H  H20  1  0.42960000  0.98590000  0.13850000  1.0 0.1202063024
H  H21  1  0.70260000  0.88720000  0.78550000  1.0 0.1202063024
H  H22  1  0.29740000  0.11280000  0.21450000  1.0 0.1202063024
H  H23  1  0.74060000  0.78010000  0.68460000  1.0 0.1285809269
H  H24  1  0.25940000  0.21990000  0.31540000  1.0 0.1285809269
H  H25  1  0.38720000  0.89970000  0.62620000  1.0 0.1405931749
H  H26  1  0.61280000  0.10030000  0.37380000  1.0 0.1405931749
H  H27  1  0.35840000  0.01310000  0.72580000  1.0 0.1202063024
H  H28  1  0.64160000  0.98690000  0.27420000  1.0 0.1202063024
H  H29  1  0.74840000  0.22160000  0.09890000  1.0 0.1405931749
H  H30  1  0.25160000  0.77840000  0.90110000  1.0 0.1405931749
H  H31  1  0.73030000  0.25730000  0.03380000  1.0 0.11295136
H  H32  1  0.26970000  0.74270000  0.96620000  1.0 0.11295136
H  H33  1  0.68700000  0.11270000  0.03960000  1.0 0.1285809269
H  H34  1  0.31300000  0.88730000  0.96040000  1.0 0.1285809269
H  H35  1  0.86680000  0.09750000  0.87210000  1.0 0.1405931749
H  H36  1  0.13320000  0.90250000  0.12790000  1.0 0.1405931749
H  H37  1  0.93220000  0.20880000  0.92990000  1.0 0.1202063024
H  H38  1  0.06780000  0.79120000  0.07010000  1.0 0.1202063024
H  H39  1  0.89070000  0.06540000  0.93760000  1.0 0.1285809269
H  H40  1  0.10930000  0.93460000  0.06240000  1.0 0.1285809269
H  H41  1  0.30610000  0.53840000  0.66270000  1.0 0.1405931749
H  H42  1  0.69390000  0.46160000  0.33730000  1.0 0.1405931749
H  H43  1  0.19180000  0.55620000  0.75810000  1.0 0.1285809269
H  H44  1  0.80820000  0.44380000  0.24190000  1.0 0.1285809269
H  H45  1  0.40420000  0.29400000  0.78980000  1.0 0.1285809269
H  H46  1  0.59580000  0.70600000  0.21020000  1.0 0.1285809269
H  H47  1  0.52100000  0.28330000  0.69370000  1.0 0.1405931749
H  H48  1  0.47900000  0.71670000  0.30630000  1.0 0.1405931749
H  H49  1  0.27580000  0.39940000  0.87430000  1.0 0.1525506445
H  H50  1  0.72420000  0.60060000  0.12570000  1.0 0.1525506445
H  H51  1  0.06040000  0.50650000  0.84950000  1.0 0.1525506445
H  H52  1  0.93960000  0.49350000  0.15050000  1.0 0.1525506445
C  C1  1  0.99200000  0.42200000  0.40250000  1.0 0.642654016
C  C2  1  0.00800000  0.57800000  0.59750000  1.0 0.642654016
C  C3  1  0.01500000  0.37100000  0.33080000  1.0 -0.0305575336
C  C4  1  0.98500000  0.62900000  0.66920000  1.0 -0.0305575336
C  C5  1  0.13700000  0.43560000  0.30370000  1.0 -0.0798359805
C  C6  1  0.86300000  0.56440000  0.69630000  1.0 -0.0798359805
C  C7  1  0.16500000  0.39160000  0.24080000  1.0 -0.1674854712
C  C8  1  0.83500000  0.60840000  0.75920000  1.0 -0.1674854712
C  C9  1  0.07620000  0.28140000  0.20750000  1.0 0.1202063024
C  C10  1  0.92380000  0.71860000  0.79250000  1.0 0.1202063024
C  C11  1  0.95200000  0.21990000  0.23720000  1.0 -0.1674854712
C  C12  1  0.04800000  0.78010000  0.76280000  1.0 -0.1674854712
C  C13  1  0.92100000  0.26400000  0.29820000  1.0 -0.0700906745
C  C14  1  0.07900000  0.73600000  0.70180000  1.0 -0.0700906745
C  C15  1  0.10500000  0.22840000  0.14050000  1.0 -0.1497391171
C  C16  1  0.89500000  0.77160000  0.85950000  1.0 -0.1497391171
C  C17  1  0.24310000  0.24740000  0.11450000  1.0 -0.1410269505
C  C18  1  0.75690000  0.75260000  0.88550000  1.0 -0.1410269505
C  C19  1  0.27320000  0.20430000  0.04790000  1.0 0.03108387
C  C20  1  0.72680000  0.79570000  0.95210000  1.0 0.03108387
C  C21  1  0.42470000  0.18750000  0.02980000  1.0 0.2134354108
C  C22  1  0.57530000  0.81250000  0.97020000  1.0 0.2134354108
C  C23  1  0.45690000  0.14600000  0.96580000  1.0 -0.2724300778
C  C24  1  0.54310000  0.85400000  0.03420000  1.0 -0.2724300778
C  C25  1  0.34460000  0.11860000  0.92120000  1.0 0.0500003354
C  C26  1  0.65540000  0.88140000  0.07880000  1.0 0.0500003354
C  C27  1  0.19320000  0.13570000  0.93970000  1.0 0.1900346943
C  C28  1  0.80680000  0.86430000  0.06030000  1.0 0.1900346943
C  C29  1  0.16400000  0.17610000  0.00300000  1.0 -0.2541432537
C  C30  1  0.83600000  0.82390000  0.99700000  1.0 -0.2541432537
C  C31  1  0.37430000  0.06920000  0.85450000  1.0 -0.1497391171
C  C32  1  0.62570000  0.93080000  0.14550000  1.0 -0.1497391171
C  C33  1  0.49620000  0.01570000  0.83220000  1.0 -0.1410269505
C  C34  1  0.50380000  0.98430000  0.16780000  1.0 -0.1497391171
C  C35  1  0.52360000  0.96010000  0.76670000  1.0 0.1202063024
C  C36  1  0.47640000  0.03990000  0.23330000  1.0 0.1202063024
C  C37  1  0.63800000  0.89080000  0.75320000  1.0 -0.1608411726
C  C38  1  0.36200000  0.10920000  0.24680000  1.0 -0.1608411726
C  C39  1  0.65900000  0.82530000  0.69260000  1.0 -0.0798359805
C  C40  1  0.34100000  0.17470000  0.30740000  1.0 -0.0798359805
C  C41  1  0.56800000  0.82490000  0.64550000  1.0 -0.0305575336
C  C42  1  0.43200000  0.17510000  0.35450000  1.0 -0.0305575336
C  C43  1  0.45300000  0.89670000  0.65830000  1.0 -0.0798359805
C  C44  1  0.54700000  0.10330000  0.34170000  1.0 -0.0798359805
C  C45  1  0.43500000  0.96320000  0.71810000  1.0 -0.1497391171
C  C46  1  0.56500000  0.03680000  0.28190000  1.0 -0.1497391171
C  C47  1  0.58100000  0.74100000  0.57960000  1.0 0.642654016
C  C48  1  0.41900000  0.25900000  0.42040000  1.0 0.642654016
C  C49  1  0.68670000  0.20030000  0.06100000  1.0 -0.2418588965
C  C50  1  0.31330000  0.79970000  0.93900000  1.0 -0.2418588965
C  C51  1  0.93150000  0.12060000  0.90930000  1.0 -0.2418588965
C  C52  1  0.06850000  0.87940000  0.09070000  1.0 -0.2418588965
C  C53  1  0.49700000  0.41600000  0.60300000  1.0 0.582112863
C  C54  1  0.50300000  0.58400000  0.39700000  1.0 0.582112863
C  C55  1  0.42300000  0.41300000  0.66840000  1.0 -0.0005435578
C  C56  1  0.57700000  0.58700000  0.33160000  1.0 -0.0005435578
C  C57  1  0.33000000  0.48800000  0.68910000  1.0 -0.0912604438
C  C58  1  0.67000000  0.51200000  0.31090000  1.0 -0.0912604438
C  C59  1  0.26100000  0.50000000  0.74650000  1.0 -0.1497391171
C  C60  1  0.73900000  0.50000000  0.25350000  1.0 -0.1497391171
C  C61  1  0.29380000  0.43300000  0.78550000  1.0 0.1001333588
C  C62  1  0.70620000  0.56700000  0.21450000  1.0 0.1001333588
C  C63  1  0.38600000  0.34840000  0.76440000  1.0 -0.1674854712
C  C64  1  0.61400000  0.65160000  0.23560000  1.0 -0.1674854712
C  C65  1  0.45300000  0.34000000  0.70680000  1.0 -0.0989000953
C  C66  1  0.54700000  0.66000000  0.29320000  1.0 -0.0989000953
C  C67  1  0.22300000  0.43690000  0.84930000  1.0 -0.1070082716
C  C68  1  0.77700000  0.56310000  0.15070000  1.0 -0.1070082716
C  C69  1  0.12000000  0.47470000  0.87460000  1.0 -0.0912604438
C  C70  1  0.88000000  0.52530000  0.12540000  1.0 -0.0912604438
C  C71  1  0.06300000  0.48280000  0.94080000  1.0 -0.0912604438
C  C72  1  0.93700000  0.51720000  0.05920000  1.0 -0.0912604438
C  C73  1  0.90400000  0.47870000  0.94850000  1.0 0.0500003354
C  C74  1  0.09600000  0.52130000  0.05150000  1.0 0.0500003354
C  C75  1  0.15810000  0.50520000  0.99080000  1.0 0.0500003354
C  C76  1  0.84190000  0.49480000  0.00920000  1.0 0.0500003354
C  C77  1  0.63700000  0.46200000  0.91160000  1.0 0.03108387
C  C78  1  0.36300000  0.53800000  0.08840000  1.0 0.03108387
C  C79  1  0.62200000  0.43900000  0.92600000  1.0 0.1202063024
C  C80  1  0.37800000  0.56100000  0.07400000  1.0 0.11295136
O  O1  1  0.86500000  0.37600000  0.42350000  1.0 -0.526369617
O  O2  1  0.13500000  0.62400000  0.57650000  1.0 -0.526369617
O  O3  1  0.08800000  0.50710000  0.43200000  1.0 -0.538210199
O  O4  1  0.91200000  0.49290000  0.56800000  1.0 -0.538210199
O  O5  1  0.53180000  0.21410000  0.07640000  1.0 -0.1410269505
O  O6  1  0.46820000  0.78590000  0.92360000  1.0 -0.1410269505
O  O7  1  0.08620000  0.10610000  0.89200000  1.0 -0.1497391171
O  O8  1  0.91380000  0.89390000  0.10800000  1.0 -0.1497391171
O  O9  1  0.69700000  0.68900000  0.57250000  1.0 -0.5090818114
O  O10  1  0.30300000  0.31100000  0.42750000  1.0 -0.5090818114
O  O11  1  0.46430000  0.71790000  0.54500000  1.0 -0.5883053399
O  O12  1  0.53570000  0.28210000  0.45500000  1.0 -0.5883053399
O  O13  1  0.42900000  0.45940000  0.56550000  1.0 -0.5204016424
O  O14  1  0.57100000  0.54060000  0.43450000  1.0 -0.5204016424
O  O15  1  0.60200000  0.36000000  0.59300000  1.0 -0.5090818114
O  O16  1  0.39800000  0.64000000  0.40700000  1.0 -0.5090818114
O  O17  1  0.81800000  0.61900000  0.47800000  1.0 -0.1608411726
O  O18  1  0.18200000  0.38100000  0.52200000  1.0 -0.1497391171
O  O19  1  0.80000000  0.46260000  0.90050000  1.0 -0.0305575336
O  O20  1  0.20000000  0.53740000  0.09950000  1.0 -0.0305575336
O  O21  1  0.80400000  0.21100000  0.50620000  1.0 -0.4785901762
O  O22  1  0.19600000  0.78900000  0.49380000  1.0 -0.4785901762
O  O23  1  0.31000000  0.50700000  0.00760000  1.0 -0.0305575336
O  O24  1  0.69000000  0.49300000  0.99240000  1.0 -0.0360467478
