# DDEC6 charges by PACMAN v1.1 (https://github.com/mtap-research/PACMAN-charge/)
data_XOWSAG_FSR_pacman
_symmetry_space_group_name_H-M   'P 1'
_cell_length_a   12.09000000
_cell_length_b   12.14600000
_cell_length_c   13.12540000
_cell_angle_alpha   60.11490000
_cell_angle_beta   73.08320000
_cell_angle_gamma   64.52200000
_symmetry_Int_Tables_number   1
_chemical_formula_structural   YbP12H44Ru6C10(N5O19)2
_chemical_formula_sum   'Yb1 P12 H44 Ru6 C10 N10 O38'
_cell_volume   1501.34244569
_cell_formula_units_Z   1
loop_
 _symmetry_equiv_pos_site_id
 _symmetry_equiv_pos_as_xyz
  1  'x, y, z'
loop_
 _atom_site_type_symbol
 _atom_site_label
 _atom_site_symmetry_multiplicity
 _atom_site_fract_x
 _atom_site_fract_y
 _atom_site_fract_z
 _atom_site_occupancy
 _atom_site_charge
Yb  Yb1  1  0.00000000  0.00000000  0.50000000  1.0 1.9326181475
P  P1  1  0.03190000  0.34561000  0.73851000  1.0 0.9772111539
P  P2  1  0.00624000  0.23940000  0.58189000  1.0 0.9890766207
P  P3  1  0.40424000  0.26600000  0.46650000  1.0 0.8703704242
P  P4  1  0.67588000  0.09320000  0.49200000  1.0 0.9452738229
P  P5  1  0.95620000  0.72771000  0.78939000  1.0 1.2168939177
P  P6  1  0.75460000  0.61530000  0.95750000  1.0 1.2263803545
P  P7  1  0.96810000  0.65439000  0.26149000  1.0 0.9772111539
P  P8  1  0.99376000  0.76060000  0.41811000  1.0 0.9890766207
P  P9  1  0.59576000  0.73400000  0.53350000  1.0 0.8703704242
P  P10  1  0.32412000  0.90680000  0.50800000  1.0 0.9452738229
P  P11  1  0.04380000  0.27229000  0.21061000  1.0 1.2168939177
P  P12  1  0.24540000  0.38470000  0.04250000  1.0 1.2263803545
H  H1  1  0.74160000  0.83120000  0.80210000  1.0 0.2195791368
H  H2  1  0.97160000  0.16410000  0.78660000  1.0 0.0561752345
H  H3  1  0.15990000  0.01590000  0.75800000  1.0 0.173270623
H  H4  1  0.17630000  0.07140000  0.82610000  1.0 0.159572101
H  H5  1  0.21410000  0.12140000  0.70010000  1.0 0.1797696701
H  H6  1  0.55480000  0.27700000  0.53260000  1.0 0.0830337487
H  H7  1  0.51650000  0.42640000  0.32930000  1.0 0.1797696701
H  H8  1  0.63490000  0.33030000  0.31080000  1.0 0.1863319639
H  H9  1  0.62420000  0.40400000  0.37490000  1.0 0.1797696701
H  H10  1  0.80750000  0.76480000  0.64960000  1.0 0.280253208
H  H11  1  0.70620000  0.71880000  0.72390000  1.0 0.2871750805
H  H12  1  0.83180000  0.62370000  0.73400000  1.0 0.2608290229
H  H13  1  0.50680000  0.82500000  0.83560000  1.0 0.4072170097
H  H14  1  0.43700000  0.95710000  0.81900000  1.0 0.4072170097
H  H15  1  0.12180000  0.13410000  0.73880000  1.0 0.030322979
H  H16  1  0.95290000  0.14950000  0.88400000  1.0 0.173270623
H  H17  1  0.99310000  0.04540000  0.84330000  1.0 0.1797696701
H  H18  1  0.87540000  0.15430000  0.81450000  1.0 0.173270623
H  H19  1  0.57950000  0.31790000  0.38530000  1.0 0.0830337487
H  H20  1  0.64410000  0.28710000  0.54860000  1.0 0.173270623
H  H21  1  0.51620000  0.30660000  0.59650000  1.0 0.1797696701
H  H22  1  0.54720000  0.40820000  0.48350000  1.0 0.1797696701
H  H23  1  0.25840000  0.16880000  0.19790000  1.0 0.2195791368
H  H24  1  0.02840000  0.83590000  0.21340000  1.0 0.0561752345
H  H25  1  0.84010000  0.98410000  0.24200000  1.0 0.173270623
H  H26  1  0.82370000  0.92860000  0.17390000  1.0 0.159572101
H  H27  1  0.78590000  0.87860000  0.29990000  1.0 0.1797696701
H  H28  1  0.44520000  0.72300000  0.46740000  1.0 0.0830337487
H  H29  1  0.48350000  0.57360000  0.67070000  1.0 0.173270623
H  H30  1  0.36510000  0.66970000  0.68920000  1.0 0.1863319639
H  H31  1  0.37580000  0.59600000  0.62510000  1.0 0.1797696701
H  H32  1  0.19250000  0.23520000  0.35040000  1.0 0.280253208
H  H33  1  0.29380000  0.28120000  0.27610000  1.0 0.2871750805
H  H34  1  0.16820000  0.37630000  0.26600000  1.0 0.2608290229
H  H35  1  0.49320000  0.17500000  0.16440000  1.0 0.4072170097
H  H36  1  0.56300000  0.04290000  0.18100000  1.0 0.4072170097
H  H37  1  0.87820000  0.86590000  0.26120000  1.0 0.030322979
H  H38  1  0.04710000  0.85050000  0.11600000  1.0 0.1797696701
H  H39  1  0.00690000  0.95460000  0.15670000  1.0 0.1797696701
H  H40  1  0.12460000  0.84570000  0.18550000  1.0 0.173270623
H  H41  1  0.42050000  0.68210000  0.61470000  1.0 0.0830337487
H  H42  1  0.35590000  0.71290000  0.45140000  1.0 0.173270623
H  H43  1  0.48380000  0.69340000  0.40350000  1.0 0.1797696701
H  H44  1  0.45280000  0.59180000  0.51650000  1.0 0.1797696701
Ru  Ru1  1  0.10751000  0.46506000  0.47660000  1.0 0.8793215815
Ru  Ru2  1  0.47940000  0.96591000  0.60263000  1.0 0.8422343198
Ru  Ru3  1  0.02019000  0.43179000  0.95220000  1.0 1.0591586891
Ru  Ru4  1  0.89249000  0.53494000  0.52340000  1.0 0.8793215815
Ru  Ru5  1  0.52060000  0.03409000  0.39737000  1.0 0.8422343198
Ru  Ru6  1  0.97981000  0.56821000  0.04780000  1.0 1.0591586891
C  C1  1  0.79660000  0.73940000  0.81380000  1.0 -0.4707949694
C  C2  1  0.03240000  0.19930000  0.72900000  1.0 -0.1379636574
C  C3  1  0.55770000  0.25900000  0.46800000  1.0 -0.1579622861
C  C4  1  0.04000000  0.19820000  0.72680000  1.0 -0.1379636574
C  C5  1  0.55830000  0.25900000  0.46500000  1.0 -0.1579622861
C  C6  1  0.20340000  0.26060000  0.18620000  1.0 -0.4707949694
C  C7  1  0.96760000  0.80070000  0.27100000  1.0 -0.1379636574
C  C8  1  0.44230000  0.74100000  0.53200000  1.0 -0.1579622861
C  C9  1  0.96000000  0.80180000  0.27320000  1.0 -0.1379636574
C  C10  1  0.44170000  0.74100000  0.53500000  1.0 -0.1579622861
N  N1  1  0.15860000  0.09050000  0.75660000  1.0 -0.262833507
N  N2  1  0.58620000  0.36500000  0.36080000  1.0 -0.1708536532
N  N3  1  0.78440000  0.70860000  0.72070000  1.0 -0.4084427144
N  N4  1  0.95300000  0.13300000  0.82500000  1.0 -0.262833507
N  N5  1  0.56700000  0.32000000  0.53100000  1.0 -0.2163449015
N  N6  1  0.84140000  0.90950000  0.24340000  1.0 -0.262833507
N  N7  1  0.41380000  0.63500000  0.63920000  1.0 -0.1708536532
N  N8  1  0.21560000  0.29140000  0.27930000  1.0 -0.4084427144
N  N9  1  0.04700000  0.86700000  0.17500000  1.0 -0.262833507
N  N10  1  0.43300000  0.68000000  0.46900000  1.0 -0.2163449015
O  O1  1  0.13720000  0.38500000  0.64800000  1.0 -0.5786333219
O  O2  1  0.04980000  0.30280000  0.86280000  1.0 -0.5569775339
O  O3  1  0.90770000  0.45790000  0.69860000  1.0 -0.5786333219
O  O4  1  0.11290000  0.28350000  0.49970000  1.0 -0.5536848243
O  O5  1  0.00270000  0.11590000  0.58590000  1.0 -0.7393949763
O  O6  1  0.88280000  0.35730000  0.55510000  1.0 -0.5685772535
O  O7  1  0.37710000  0.15500000  0.58580000  1.0 -0.6012065347
O  O8  1  0.31440000  0.40430000  0.44200000  1.0 -0.5222259101
O  O9  1  0.42130000  0.22890000  0.36550000  1.0 -0.5786333219
O  O10  1  0.63100000  0.99220000  0.61050000  1.0 -0.5855042722
O  O11  1  0.79630000  0.09780000  0.49460000  1.0 -0.7450762328
O  O12  1  0.67470000  0.06830000  0.38890000  1.0 -0.5855042722
O  O13  1  0.97360000  0.83920000  0.67300000  1.0 -0.8181745347
O  O14  1  0.03020000  0.58690000  0.79120000  1.0 -0.6012065347
O  O15  1  0.98050000  0.73590000  0.89290000  1.0 -0.6426120933
O  O16  1  0.83800000  0.47890000  0.95150000  1.0 -0.6345671352
O  O17  1  0.62010000  0.64020000  0.96920000  1.0 -0.665144914
O  O18  1  0.79510000  0.62790000  0.05160000  1.0 -0.6482863959
O  O19  1  0.44550000  0.89370000  0.80340000  1.0 -0.6198229727
O  O20  1  0.86280000  0.61500000  0.35200000  1.0 -0.5786333219
O  O21  1  0.95020000  0.69720000  0.13720000  1.0 -0.5569775339
O  O22  1  0.09230000  0.54210000  0.30140000  1.0 -0.5786333219
O  O23  1  0.88710000  0.71650000  0.50030000  1.0 -0.5536848243
O  O24  1  0.99730000  0.88410000  0.41410000  1.0 -0.7393949763
O  O25  1  0.11720000  0.64270000  0.44490000  1.0 -0.5685772535
O  O26  1  0.62290000  0.84500000  0.41420000  1.0 -0.6012065347
O  O27  1  0.68560000  0.59570000  0.55800000  1.0 -0.5222259101
O  O28  1  0.57870000  0.77110000  0.63450000  1.0 -0.5786333219
O  O29  1  0.36900000  0.00780000  0.38950000  1.0 -0.5855042722
O  O30  1  0.20370000  0.90220000  0.50540000  1.0 -0.7393949763
O  O31  1  0.32530000  0.93170000  0.61110000  1.0 -0.5855042722
O  O32  1  0.02640000  0.16080000  0.32700000  1.0 -0.8181745347
O  O33  1  0.96980000  0.41310000  0.20880000  1.0 -0.6012065347
O  O34  1  0.01950000  0.26410000  0.10710000  1.0 -0.6426120933
O  O35  1  0.16200000  0.52110000  0.04850000  1.0 -0.6345671352
O  O36  1  0.37990000  0.35980000  0.03080000  1.0 -0.6645246085
O  O37  1  0.20490000  0.37210000  0.94840000  1.0 -0.6482863959
O  O38  1  0.55450000  0.10630000  0.19660000  1.0 -0.6198229727
