# DDEC6 charges by PACMAN v1.1 (https://github.com/mtap-research/PACMAN-charge/)
data_XUCLIS_ASR_pacman
_symmetry_space_group_name_H-M   'P 1'
_cell_length_a   15.01530000
_cell_length_b   15.01530000
_cell_length_c   26.18800000
_cell_angle_alpha   64.17640000
_cell_angle_beta   115.82400000
_cell_angle_gamma   144.06400000
_symmetry_Int_Tables_number   1
_chemical_formula_structural   ZnH22C29NO4
_chemical_formula_sum   'Zn4 H88 C116 N4 O16'
_cell_volume   3080.45070917
_cell_formula_units_Z   4
loop_
 _symmetry_equiv_pos_site_id
 _symmetry_equiv_pos_as_xyz
  1  'x, y, z'
loop_
 _atom_site_type_symbol
 _atom_site_label
 _atom_site_symmetry_multiplicity
 _atom_site_fract_x
 _atom_site_fract_y
 _atom_site_fract_z
 _atom_site_occupancy
 _atom_site_charge
Zn  Zn1  1  0.12858000  0.59464000  0.97177000  1.0 0.8329102352
Zn  Zn2  1  0.59464000  0.12858000  0.52823000  1.0 0.8329102352
Zn  Zn3  1  0.87142000  0.40536000  0.02823000  1.0 0.8329102352
Zn  Zn4  1  0.40536000  0.87142000  0.47177000  1.0 0.8329102352
H  H1  1  0.14850000  0.59630000  0.19150000  1.0 0.1190184122
H  H2  1  0.59630000  0.14850000  0.30850000  1.0 0.1190184122
H  H3  1  0.85150000  0.40370000  0.80850000  1.0 0.1190184122
H  H4  1  0.40371000  0.85150000  0.69150000  1.0 0.1190184122
H  H5  1  0.45940000  0.75559000  0.12510000  1.0 0.1190184122
H  H6  1  0.75560000  0.45940000  0.37490000  1.0 0.1190184122
H  H7  1  0.54060000  0.24440000  0.87490000  1.0 0.1190184122
H  H8  1  0.24440000  0.54060000  0.62510000  1.0 0.1190184122
H  H9  1  0.32330000  0.69829000  0.27380000  1.0 0.1190184122
H  H10  1  0.69829000  0.32330000  0.22620000  1.0 0.1190184122
H  H11  1  0.67670000  0.30171000  0.72620000  1.0 0.1190184122
H  H12  1  0.30171000  0.67670000  0.77380000  1.0 0.1190184122
H  H13  1  0.63240000  0.85079000  0.20810000  1.0 0.1190184122
H  H14  1  0.85079000  0.63240000  0.29190000  1.0 0.1190184122
H  H15  1  0.36760000  0.14920000  0.79190000  1.0 0.1190184122
H  H16  1  0.14920000  0.36760000  0.70810000  1.0 0.1190184122
H  H17  1  0.52830000  0.89109000  0.32350000  1.0 0.1190184122
H  H18  1  0.89109000  0.52830000  0.17650000  1.0 0.1190184122
H  H19  1  0.47170000  0.10890000  0.67650000  1.0 0.1190184122
H  H20  1  0.10890000  0.47170000  0.82350000  1.0 0.1190184122
H  H21  1  0.69340000  0.98059000  0.40900000  1.0 0.1190184122
H  H22  1  0.98059000  0.69340000  0.09100000  1.0 0.1190184122
H  H23  1  0.30660000  0.01941000  0.59100000  1.0 0.1190184122
H  H24  1  0.01941000  0.30660000  0.90900000  1.0 0.1190184122
H  H25  1  0.72750000  0.83409000  0.30190000  1.0 0.1121268928
H  H26  1  0.83410000  0.72750000  0.19810000  1.0 0.1121268928
H  H27  1  0.27250000  0.16590000  0.69810000  1.0 0.1121268928
H  H28  1  0.16590000  0.27250000  0.80190000  1.0 0.1121268928
H  H29  1  0.88020000  0.00439000  0.43900000  1.0 0.1121268928
H  H30  1  0.00439000  0.88020000  0.06100000  1.0 0.1121268928
H  H31  1  0.11980000  0.99560000  0.56100000  1.0 0.1121268928
H  H32  1  0.99561000  0.11980000  0.93900000  1.0 0.1121268928
H  H33  1  0.10160000  0.11740000  0.43440000  1.0 0.1121268928
H  H34  1  0.11739000  0.10160000  0.06560000  1.0 0.1121268928
H  H35  1  0.89840000  0.88260000  0.56560000  1.0 0.1121268928
H  H36  1  0.88260000  0.89840000  0.93440000  1.0 0.1121268928
H  H37  1  0.82500000  0.75199000  0.36360000  1.0 0.1190184122
H  H38  1  0.75200000  0.82500000  0.13640000  1.0 0.1190184122
H  H39  1  0.17500000  0.24801000  0.63640000  1.0 0.1190184122
H  H40  1  0.24801000  0.17500000  0.86360000  1.0 0.1190184122
H  H41  1  0.28340000  0.13220000  0.47010000  1.0 0.1190184122
H  H42  1  0.13219000  0.28340000  0.02990000  1.0 0.1190184122
H  H43  1  0.71660000  0.86780000  0.52990000  1.0 0.1190184122
H  H44  1  0.86780000  0.71660000  0.97010000  1.0 0.1190184122
H  H45  1  0.00540000  0.76660000  0.40010000  1.0 0.1190184122
H  H46  1  0.76660000  0.00540000  0.09990000  1.0 0.1190184122
H  H47  1  0.99460000  0.23340000  0.59990000  1.0 0.1190184122
H  H48  1  0.23341000  0.99460000  0.90010000  1.0 0.1190184122
H  H49  1  0.42530000  0.92890000  0.95760000  1.0 0.1121268928
H  H50  1  0.92889000  0.42530000  0.54240000  1.0 0.1121268928
H  H51  1  0.57470000  0.07111000  0.04240000  1.0 0.1121268928
H  H52  1  0.07110000  0.57470000  0.45760000  1.0 0.1121268928
H  H53  1  0.28440000  0.58399000  0.93780000  1.0 0.1121268928
H  H54  1  0.58400000  0.28440000  0.56220000  1.0 0.1121268928
H  H55  1  0.71560000  0.41600000  0.06220000  1.0 0.1121268928
H  H56  1  0.41601000  0.71560000  0.43780000  1.0 0.1121268928
H  H57  1  0.66540000  0.09639000  0.94100000  1.0 0.1321478758
H  H58  1  0.09639000  0.66540000  0.55900000  1.0 0.1321478758
H  H59  1  0.33460000  0.90360000  0.05900000  1.0 0.1321478758
H  H60  1  0.90360000  0.33460000  0.44100000  1.0 0.1321478758
H  H61  1  0.71670000  0.00350000  0.92300000  1.0 0.1321478758
H  H62  1  0.00350000  0.71670000  0.57700000  1.0 0.1321478758
H  H63  1  0.28330000  0.99650000  0.07700000  1.0 0.1321478758
H  H64  1  0.99651000  0.28330000  0.42300000  1.0 0.1321478758
H  H65  1  0.56310000  0.74629000  0.88220000  1.0 0.1190184122
H  H66  1  0.74630000  0.56310000  0.61780000  1.0 0.1190184122
H  H67  1  0.43690000  0.25371000  0.11780000  1.0 0.1190184122
H  H68  1  0.25370000  0.43690000  0.38220000  1.0 0.1190184122
H  H69  1  0.37560000  0.51399000  0.96400000  1.0 0.0790257645
H  H70  1  0.51399000  0.37560000  0.53600000  1.0 0.0790257645
H  H71  1  0.62440000  0.48600000  0.03600000  1.0 0.0790257645
H  H72  1  0.48600000  0.62440000  0.46400000  1.0 0.0790257645
H  H73  1  0.68370000  0.70490000  0.00930000  1.0 0.1029381754
H  H74  1  0.70490000  0.68370000  0.49070000  1.0 0.1029381754
H  H75  1  0.31630000  0.29510000  0.99070000  1.0 0.1029381754
H  H76  1  0.29511000  0.31630000  0.50930000  1.0 0.1029381754
H  H77  1  0.58100000  0.68839000  0.02530000  1.0 0.1029381754
H  H78  1  0.68839000  0.58100000  0.47470000  1.0 0.1029381754
H  H79  1  0.41900000  0.31160000  0.97470000  1.0 0.1029381754
H  H80  1  0.31160000  0.41900000  0.52530000  1.0 0.1029381754
H  H81  1  0.42270000  0.43069000  0.06380000  1.0 0.1029381754
H  H82  1  0.43069000  0.42270000  0.43620000  1.0 0.1029381754
H  H83  1  0.57730000  0.56930000  0.93620000  1.0 0.1029381754
H  H84  1  0.56930000  0.57730000  0.56380000  1.0 0.1029381754
H  H85  1  0.59290000  0.53329000  0.09460000  1.0 0.1029381754
H  H86  1  0.53330000  0.59290000  0.40540000  1.0 0.1029381754
H  H87  1  0.40710000  0.46670000  0.90540000  1.0 0.1029381754
H  H88  1  0.46671000  0.40710000  0.59460000  1.0 0.1029381754
C  C1  1  0.28578000  0.66521000  0.14970000  1.0 -0.0361807908
C  C2  1  0.66522000  0.28578000  0.35030000  1.0 -0.0361807908
C  C3  1  0.71422000  0.33478000  0.85030000  1.0 -0.0361807908
C  C4  1  0.33478000  0.71422000  0.64970000  1.0 -0.0361807908
C  C5  1  0.24638000  0.64862000  0.19460000  1.0 -0.1004631478
C  C6  1  0.64862000  0.24638000  0.30540000  1.0 -0.1004631478
C  C7  1  0.75362000  0.35138000  0.80540000  1.0 -0.1004631478
C  C8  1  0.35138000  0.75362000  0.69460000  1.0 -0.1004631478
C  C9  1  0.43118000  0.74262000  0.15530000  1.0 -0.10682403
C  C10  1  0.74262000  0.43118000  0.34470000  1.0 -0.10682403
C  C11  1  0.56882000  0.25738000  0.84470000  1.0 -0.10682403
C  C12  1  0.25738000  0.56882000  0.65530000  1.0 -0.10682403
C  C13  1  0.35118000  0.70921000  0.24417000  1.0 -0.1510673266
C  C14  1  0.70922000  0.35118000  0.25583000  1.0 -0.1510673266
C  C15  1  0.64882000  0.29078000  0.75583000  1.0 -0.1510673266
C  C16  1  0.29079000  0.64882000  0.74417000  1.0 -0.1510673266
C  C17  1  0.53584000  0.80115000  0.20491000  1.0 -0.1510673266
C  C18  1  0.80115000  0.53584000  0.29509000  1.0 -0.1510673266
C  C19  1  0.46416000  0.19884000  0.79509000  1.0 -0.1510673266
C  C20  1  0.19884000  0.46416000  0.70491000  1.0 -0.1510673266
C  C21  1  0.49716000  0.78603000  0.25024000  1.0 0.0790257645
C  C22  1  0.78603000  0.49716000  0.24976000  1.0 0.0790257645
C  C23  1  0.50284000  0.21396000  0.74976000  1.0 0.0790257645
C  C24  1  0.21397000  0.50284000  0.75024000  1.0 0.0790257645
C  C25  1  0.60895000  0.85064000  0.30400000  1.0 0.0790257645
C  C26  1  0.85064000  0.60895000  0.19600000  1.0 0.0790257645
C  C27  1  0.39105000  0.14935000  0.69600000  1.0 0.0790257645
C  C28  1  0.14935000  0.39105000  0.80400000  1.0 0.0790257645
C  C29  1  0.60124000  0.89715000  0.33624000  1.0 -0.1561242275
C  C30  1  0.89716000  0.60124000  0.16376000  1.0 -0.1561242275
C  C31  1  0.39876000  0.10284000  0.66376000  1.0 -0.1561242275
C  C32  1  0.10284000  0.39876000  0.83624000  1.0 -0.1561242275
C  C33  1  0.70126000  0.95254000  0.38714000  1.0 -0.0944715113
C  C34  1  0.95254000  0.70126000  0.11286000  1.0 -0.0944715113
C  C35  1  0.29874000  0.04746000  0.61286000  1.0 -0.0944715113
C  C36  1  0.04747000  0.29874000  0.88714000  1.0 -0.1004631478
C  C37  1  0.72108000  0.86411000  0.32326000  1.0 -0.1915758223
C  C38  1  0.86411000  0.72108000  0.17674000  1.0 -0.1915758223
C  C39  1  0.27892000  0.13588000  0.67674000  1.0 -0.1915758223
C  C40  1  0.13589000  0.27892000  0.82326000  1.0 -0.1915758223
C  C41  1  0.81217000  0.96562000  0.40523000  1.0 -0.1561242275
C  C42  1  0.96562000  0.81217000  0.09477000  1.0 -0.1561242275
C  C43  1  0.18783000  0.03437000  0.59477000  1.0 -0.1561242275
C  C44  1  0.03437000  0.18783000  0.90523000  1.0 -0.1561242275
C  C45  1  0.82428000  0.92171000  0.37374000  1.0 0.0790257645
C  C46  1  0.92171000  0.82428000  0.12626000  1.0 0.0790257645
C  C47  1  0.17572000  0.07828000  0.62626000  1.0 0.0790257645
C  C48  1  0.07828000  0.17572000  0.87374000  1.0 0.0790257645
C  C49  1  0.94138000  0.93241000  0.39497000  1.0 0.0790257645
C  C50  1  0.93241000  0.94138000  0.10503000  1.0 0.0790257645
C  C51  1  0.05862000  0.06759000  0.60503000  1.0 0.0790257645
C  C52  1  0.06759000  0.05862000  0.89497000  1.0 0.0790257645
C  C53  1  0.08117000  0.04623000  0.42721000  1.0 -0.1510673266
C  C54  1  0.04623000  0.08117000  0.07279000  1.0 -0.1510673266
C  C55  1  0.91883000  0.95377000  0.57279000  1.0 -0.1510673266
C  C56  1  0.95377000  0.91883000  0.92721000  1.0 -0.1510673266
C  C57  1  0.91673000  0.82866000  0.38520000  1.0 -0.1510673266
C  C58  1  0.82866000  0.91673000  0.11480000  1.0 -0.1510673266
C  C59  1  0.08327000  0.17133000  0.61480000  1.0 -0.1510673266
C  C60  1  0.17133000  0.08327000  0.88520000  1.0 -0.1510673266
C  C61  1  0.19074000  0.05525000  0.44881000  1.0 -0.10682403
C  C62  1  0.05525000  0.19074000  0.05119000  1.0 -0.10682403
C  C63  1  0.80926000  0.94474000  0.55119000  1.0 -0.10682403
C  C64  1  0.94474000  0.80926000  0.94881000  1.0 -0.10682403
C  C65  1  0.02507000  0.83752000  0.40694000  1.0 -0.1004631478
C  C66  1  0.83752000  0.02507000  0.09306000  1.0 -0.1004631478
C  C67  1  0.97493000  0.16248000  0.59306000  1.0 -0.1004631478
C  C68  1  0.16248000  0.97493000  0.90694000  1.0 -0.1004631478
C  C69  1  0.16309000  0.95150000  0.43886000  1.0 -0.0361807908
C  C70  1  0.95151000  0.16309000  0.06114000  1.0 -0.0361807908
C  C71  1  0.83691000  0.04849000  0.56114000  1.0 -0.0361807908
C  C72  1  0.04850000  0.83691000  0.93886000  1.0 -0.0361807908
C  C73  1  0.28306000  0.96513000  0.46093000  1.0 0.5775623276
C  C74  1  0.96513000  0.28306000  0.03907000  1.0 0.5775623276
C  C75  1  0.71694000  0.03487000  0.53907000  1.0 0.5775623276
C  C76  1  0.03486000  0.71694000  0.96093000  1.0 0.5775623276
C  C77  1  0.44528000  0.89172000  0.94980000  1.0 0.0660116776
C  C78  1  0.89171000  0.44528000  0.55020000  1.0 0.0660116776
C  C79  1  0.55472000  0.10829000  0.05020000  1.0 0.0660116776
C  C80  1  0.10829000  0.55472000  0.44980000  1.0 0.0660116776
C  C81  1  0.36231000  0.68888000  0.93786000  1.0 0.0211798925
C  C82  1  0.68888000  0.36231000  0.56214000  1.0 0.0211798925
C  C83  1  0.63769000  0.31111000  0.06214000  1.0 0.0211798925
C  C84  1  0.31111000  0.63769000  0.43786000  1.0 0.0211798925
C  C85  1  0.58900000  0.99219000  0.94010000  1.0 -0.1212993477
C  C86  1  0.99220000  0.58900000  0.55990000  1.0 -0.1212993477
C  C87  1  0.41100000  0.00780000  0.05990000  1.0 -0.1212993477
C  C88  1  0.00781000  0.41100000  0.44010000  1.0 -0.1212993477
C  C89  1  0.61910000  0.93690000  0.92900000  1.0 -0.1004631478
C  C90  1  0.93689000  0.61910000  0.57100000  1.0 -0.1004631478
C  C91  1  0.38090000  0.06310000  0.07100000  1.0 -0.1004631478
C  C92  1  0.06310000  0.38090000  0.42900000  1.0 -0.1004631478
C  C93  1  0.50340000  0.78239000  0.92691000  1.0 0.0790257645
C  C94  1  0.78239000  0.50340000  0.57309000  1.0 0.0790257645
C  C95  1  0.49660000  0.21760000  0.07309000  1.0 0.0790257645
C  C96  1  0.21761000  0.49660000  0.42691000  1.0 0.0790257645
C  C97  1  0.17194000  0.59845000  0.09605000  1.0 0.5775623276
C  C98  1  0.59845000  0.17194000  0.40395000  1.0 0.5775623276
C  C99  1  0.82806000  0.40154000  0.90395000  1.0 0.5775623276
C  C100  1  0.40155000  0.82806000  0.59605000  1.0 0.5775623276
C  C101  1  0.52520000  0.71219000  0.91430000  1.0 -0.3353289709
C  C102  1  0.71219000  0.52520000  0.58570000  1.0 -0.3353289709
C  C103  1  0.47480000  0.28780000  0.08570000  1.0 -0.3353289709
C  C104  1  0.28780000  0.47480000  0.41430000  1.0 -0.3343925223
C  C105  1  0.47951000  0.58488000  0.95863000  1.0 0.0211798925
C  C106  1  0.58488000  0.47951000  0.54137000  1.0 0.0211798925
C  C107  1  0.52049000  0.41512000  0.04137000  1.0 0.0211798925
C  C108  1  0.41511000  0.52049000  0.45863000  1.0 0.0211798925
C  C109  1  0.57969000  0.63450000  0.01340000  1.0 -0.2085067824
C  C110  1  0.63450000  0.57969000  0.48660000  1.0 -0.2085067824
C  C111  1  0.42031000  0.36550000  0.98660000  1.0 -0.2085067824
C  C112  1  0.36550000  0.42031000  0.51340000  1.0 -0.2085067824
C  C113  1  0.52466000  0.49854000  0.05833000  1.0 -0.1915758223
C  C114  1  0.49853000  0.52466000  0.44167000  1.0 -0.1915758223
C  C115  1  0.47534000  0.50147000  0.94167000  1.0 -0.1915758223
C  C116  1  0.50146000  0.47534000  0.55833000  1.0 -0.1915758223
N  N1  1  0.33182000  0.74057000  0.94851000  1.0 -0.1915758223
N  N2  1  0.74058000  0.33182000  0.55149000  1.0 -0.1915758223
N  N3  1  0.66818000  0.25943000  0.05149000  1.0 -0.1915758223
N  N4  1  0.25943000  0.66818000  0.44851000  1.0 -0.1915758223
O  O1  1  0.22354000  0.64506000  0.05355000  1.0 -0.538705726
O  O2  1  0.64506000  0.22354000  0.44645000  1.0 -0.538705726
O  O3  1  0.77646000  0.35495000  0.94645000  1.0 -0.538705726
O  O4  1  0.35494000  0.77646000  0.55355000  1.0 -0.538705726
O  O5  1  0.03461000  0.50798000  0.09725000  1.0 -0.5281341717
O  O6  1  0.50798000  0.03461000  0.40275000  1.0 -0.5281341717
O  O7  1  0.96539000  0.49201000  0.90275000  1.0 -0.5281341717
O  O8  1  0.49201000  0.96539000  0.59725000  1.0 -0.5281341717
O  O9  1  0.25805000  0.87334000  0.44918000  1.0 -0.538705726
O  O10  1  0.87335000  0.25805000  0.05082000  1.0 -0.538705726
O  O11  1  0.74195000  0.12665000  0.55082000  1.0 -0.538705726
O  O12  1  0.12666000  0.74195000  0.94918000  1.0 -0.538705726
O  O13  1  0.39929000  0.06270000  0.49441000  1.0 -0.5523676321
O  O14  1  0.06270000  0.39929000  0.00559000  1.0 -0.5523676321
O  O15  1  0.60071000  0.93729000  0.50559000  1.0 -0.5523676321
O  O16  1  0.93729000  0.60071000  0.99441000  1.0 -0.5523676321
