# DDEC6 charges by PACMAN v1.1 (https://github.com/mtap-research/PACMAN-charge/)
data_XUFWOM_ASR_pacman
_symmetry_space_group_name_H-M   'P 1'
_cell_length_a   21.26140000
_cell_length_b   21.26140000
_cell_length_c   19.75150000
_cell_angle_alpha   77.39630000
_cell_angle_beta   102.60400000
_cell_angle_gamma   126.83000000
_symmetry_Int_Tables_number   1
_chemical_formula_structural   Zn7H24(C2O)32
_chemical_formula_sum   'Zn14 H48 C128 O64'
_cell_volume   6930.59775842
_cell_formula_units_Z   2
loop_
 _symmetry_equiv_pos_site_id
 _symmetry_equiv_pos_as_xyz
  1  'x, y, z'
loop_
 _atom_site_type_symbol
 _atom_site_label
 _atom_site_symmetry_multiplicity
 _atom_site_fract_x
 _atom_site_fract_y
 _atom_site_fract_z
 _atom_site_occupancy
 _atom_site_charge
Zn  Zn1  1  0.70994000  0.51226000  0.91109000  1.0 0.9323434543
Zn  Zn2  1  0.51226000  0.70994000  0.58891000  1.0 0.9323434543
Zn  Zn3  1  0.29006000  0.48774000  0.08891000  1.0 0.9323434543
Zn  Zn4  1  0.48774000  0.29006000  0.41109000  1.0 0.9323434543
Zn  Zn5  1  0.99797000  0.78403000  0.79656000  1.0 0.9471575628
Zn  Zn6  1  0.78403000  0.99797000  0.70344000  1.0 0.9471575628
Zn  Zn7  1  0.00203000  0.21597000  0.20344000  1.0 0.9471575628
Zn  Zn8  1  0.21597000  0.00203000  0.29656000  1.0 0.9471575628
Zn  Zn9  1  0.77834000  0.40034000  0.94879000  1.0 0.9631909142
Zn  Zn10  1  0.40034000  0.77834000  0.55121000  1.0 0.9631909142
Zn  Zn11  1  0.22166000  0.59966000  0.05121000  1.0 0.9631909142
Zn  Zn12  1  0.59966000  0.22166000  0.44879000  1.0 0.9631909142
Zn  Zn13  1  0.91046000  0.91046000  0.75000000  1.0 1.0852942477
Zn  Zn14  1  0.08954000  0.08954000  0.25000000  1.0 1.0852942477
H  H1  1  0.04330000  0.99450000  0.94020000  1.0 0.1208857904
H  H2  1  0.99450000  0.04330000  0.55980000  1.0 0.1208857904
H  H3  1  0.95670000  0.00550000  0.05980000  1.0 0.1208857904
H  H4  1  0.00550000  0.95670000  0.44020000  1.0 0.1208857904
H  H5  1  0.08410000  0.03690000  0.04900000  1.0 0.129322406
H  H6  1  0.03690000  0.08410000  0.45100000  1.0 0.129322406
H  H7  1  0.91590000  0.96310000  0.95100000  1.0 0.129322406
H  H8  1  0.96310000  0.91590000  0.54900000  1.0 0.129322406
H  H9  1  0.09130000  0.84970000  0.12710000  1.0 0.129322406
H  H10  1  0.84970000  0.09130000  0.37290000  1.0 0.129322406
H  H11  1  0.90870000  0.15030000  0.87290000  1.0 0.129322406
H  H12  1  0.15030000  0.90870000  0.62710000  1.0 0.129322406
H  H13  1  0.92740000  0.71940000  0.97810000  1.0 0.129322406
H  H14  1  0.71940000  0.92740000  0.52190000  1.0 0.129322406
H  H15  1  0.07260000  0.28060000  0.02190000  1.0 0.129322406
H  H16  1  0.28060000  0.07260000  0.47810000  1.0 0.129322406
H  H17  1  0.01270000  0.59010000  0.99990000  1.0 0.1414147216
H  H18  1  0.59010000  0.01270000  0.50010000  1.0 0.1414147216
H  H19  1  0.98730000  0.40990000  0.00010000  1.0 0.1414147216
H  H20  1  0.40990000  0.98730000  0.49990000  1.0 0.1414147216
H  H21  1  0.15200000  0.80960000  0.05790000  1.0 0.1208857904
H  H22  1  0.80960000  0.15200000  0.44210000  1.0 0.1208857904
H  H23  1  0.84800000  0.19040000  0.94210000  1.0 0.1208857904
H  H24  1  0.19040000  0.84800000  0.55790000  1.0 0.1208857904
H  H25  1  0.71700000  0.71400000  0.68930000  1.0 0.129322406
H  H26  1  0.71400000  0.71700000  0.81070000  1.0 0.129322406
H  H27  1  0.28300000  0.28600000  0.31070000  1.0 0.129322406
H  H28  1  0.28600000  0.28300000  0.18930000  1.0 0.129322406
H  H29  1  0.56400000  0.48840000  0.64380000  1.0 0.129322406
H  H30  1  0.48840000  0.56400000  0.85620000  1.0 0.129322406
H  H31  1  0.43600000  0.51160000  0.35620000  1.0 0.129322406
H  H32  1  0.51160000  0.43600000  0.14380000  1.0 0.129322406
H  H33  1  0.78200000  0.56440000  0.73650000  1.0 0.129322406
H  H34  1  0.56440000  0.78200000  0.76350000  1.0 0.129322406
H  H35  1  0.21800000  0.43560000  0.26350000  1.0 0.129322406
H  H36  1  0.43560000  0.21800000  0.23650000  1.0 0.129322406
H  H37  1  0.61480000  0.43400000  0.58210000  1.0 0.129322406
H  H38  1  0.43400000  0.61480000  0.91790000  1.0 0.129322406
H  H39  1  0.38520000  0.56600000  0.41790000  1.0 0.129322406
H  H40  1  0.56600000  0.38520000  0.08210000  1.0 0.129322406
H  H41  1  0.62670000  0.25150000  0.66370000  1.0 0.129322406
H  H42  1  0.25150000  0.62670000  0.83630000  1.0 0.129322406
H  H43  1  0.37330000  0.74850000  0.33630000  1.0 0.129322406
H  H44  1  0.74850000  0.37330000  0.16370000  1.0 0.129322406
H  H45  1  0.67640000  0.30140000  0.77110000  1.0 0.1414147216
H  H46  1  0.30140000  0.67640000  0.72890000  1.0 0.1414147216
H  H47  1  0.32360000  0.69860000  0.22890000  1.0 0.1414147216
H  H48  1  0.69860000  0.32360000  0.27110000  1.0 0.1414147216
C  C1  1  0.01290000  0.87370000  0.89600000  1.0 0.5894748579
C  C2  1  0.87370000  0.01290000  0.60400000  1.0 0.5894748579
C  C3  1  0.98710000  0.12630000  0.10400000  1.0 0.5894748579
C  C4  1  0.12630000  0.98710000  0.39600000  1.0 0.5894748579
C  C5  1  0.03980000  0.89640000  0.96760000  1.0 -0.0671461549
C  C6  1  0.89640000  0.03980000  0.53240000  1.0 -0.0671461549
C  C7  1  0.96020000  0.10360000  0.03240000  1.0 -0.0671461549
C  C8  1  0.10360000  0.96020000  0.46760000  1.0 -0.0671461549
C  C9  1  0.05210000  0.96490000  0.97800000  1.0 -0.0909928669
C  C10  1  0.96490000  0.05210000  0.52200000  1.0 -0.0909928669
C  C11  1  0.94790000  0.03510000  0.02200000  1.0 -0.0909928669
C  C12  1  0.03510000  0.94790000  0.47800000  1.0 -0.0909928669
C  C13  1  0.07720000  0.99080000  0.04320000  1.0 -0.1062139113
C  C14  1  0.99080000  0.07720000  0.45680000  1.0 -0.1062139113
C  C15  1  0.92280000  0.00920000  0.95680000  1.0 -0.1062139113
C  C16  1  0.00920000  0.92280000  0.54320000  1.0 -0.1025028078
C  C17  1  0.09220000  0.94840000  0.10020000  1.0 -0.0022964778
C  C18  1  0.94840000  0.09220000  0.39980000  1.0 -0.0022964778
C  C19  1  0.90780000  0.05160000  0.89980000  1.0 -0.0022964778
C  C20  1  0.05160000  0.90780000  0.60020000  1.0 -0.0022964778
C  C21  1  0.08073000  0.87827000  0.08950000  1.0 -0.1450401087
C  C22  1  0.87827000  0.08073000  0.41050000  1.0 -0.1420752395
C  C23  1  0.91927000  0.12173000  0.91050000  1.0 -0.1420752395
C  C24  1  0.12173000  0.91927000  0.58950000  1.0 -0.1420752395
C  C25  1  0.05449000  0.85151000  0.02510000  1.0 0.0695510195
C  C26  1  0.85151000  0.05449000  0.47490000  1.0 0.0695510195
C  C27  1  0.94551000  0.14849000  0.97490000  1.0 0.0695510195
C  C28  1  0.14849000  0.94551000  0.52510000  1.0 0.0695510195
C  C29  1  0.11910000  0.97470000  0.17160000  1.0 0.5894748579
C  C30  1  0.97470000  0.11910000  0.32840000  1.0 0.5894748579
C  C31  1  0.88090000  0.02530000  0.82840000  1.0 0.5894748579
C  C32  1  0.02530000  0.88090000  0.67160000  1.0 0.5894748579
C  C33  1  0.04297000  0.77703000  0.01850000  1.0 0.0695510195
C  C34  1  0.77703000  0.04297000  0.48150000  1.0 0.0695510195
C  C35  1  0.95703000  0.22297000  0.98150000  1.0 0.0695510195
C  C36  1  0.22297000  0.95703000  0.51850000  1.0 0.0695510195
C  C37  1  0.96862000  0.71378000  0.99210000  1.0 -0.128246256
C  C38  1  0.71378000  0.96862000  0.50790000  1.0 -0.128246256
C  C39  1  0.03138000  0.28622000  0.00790000  1.0 -0.128246256
C  C40  1  0.28622000  0.03138000  0.49210000  1.0 -0.128246256
C  C41  1  0.95638000  0.64282000  0.98670000  1.0 -0.0172528609
C  C42  1  0.64282000  0.95638000  0.51330000  1.0 -0.0172528609
C  C43  1  0.04362000  0.35718000  0.01330000  1.0 -0.0172528609
C  C44  1  0.35718000  0.04362000  0.48670000  1.0 -0.0172528609
C  C45  1  0.01988000  0.63652000  0.00520000  1.0 -0.1025028078
C  C46  1  0.63652000  0.01988000  0.49480000  1.0 -0.1025028078
C  C47  1  0.98012000  0.36348000  0.99480000  1.0 -0.1025028078
C  C48  1  0.36348000  0.98012000  0.50520000  1.0 -0.1025028078
C  C49  1  0.09256000  0.69764000  0.03120000  1.0 -0.0172528609
C  C50  1  0.69764000  0.09256000  0.46880000  1.0 -0.0172528609
C  C51  1  0.90744000  0.30236000  0.96880000  1.0 -0.0172528609
C  C52  1  0.30236000  0.90744000  0.53120000  1.0 -0.0172528609
C  C53  1  0.10336000  0.76864000  0.03880000  1.0 -0.11896859
C  C54  1  0.76864000  0.10336000  0.46120000  1.0 -0.11896859
C  C55  1  0.89664000  0.23136000  0.96120000  1.0 -0.11896859
C  C56  1  0.23136000  0.89664000  0.53880000  1.0 -0.11896859
C  C57  1  0.87749000  0.57431000  0.95870000  1.0 0.6067836742
C  C58  1  0.57431000  0.87749000  0.54130000  1.0 0.6067836742
C  C59  1  0.12251000  0.42569000  0.04130000  1.0 0.6067836742
C  C60  1  0.42569000  0.12251000  0.45870000  1.0 0.6067836742
C  C61  1  0.16110000  0.69230000  0.04800000  1.0 0.5669488024
C  C62  1  0.69230000  0.16110000  0.45200000  1.0 0.5669488024
C  C63  1  0.83890000  0.30770000  0.95200000  1.0 0.5669488024
C  C64  1  0.30770000  0.83890000  0.54800000  1.0 0.5669488024
C  C65  1  0.83962000  0.71178000  0.75200000  1.0 0.5819303106
C  C66  1  0.71178000  0.83962000  0.74800000  1.0 0.5819303106
C  C67  1  0.16038000  0.28822000  0.24800000  1.0 0.5819303106
C  C68  1  0.28822000  0.16038000  0.25200000  1.0 0.5819303106
C  C69  1  0.76061000  0.64839000  0.71870000  1.0 0.002320255
C  C70  1  0.64839000  0.76061000  0.78130000  1.0 0.002320255
C  C71  1  0.23939000  0.35161000  0.28130000  1.0 0.002320255
C  C72  1  0.35161000  0.23939000  0.21870000  1.0 0.002320255
C  C73  1  0.70485000  0.66395000  0.68960000  1.0 -0.1025028078
C  C74  1  0.66395000  0.70485000  0.81040000  1.0 -0.1025028078
C  C75  1  0.29515000  0.33605000  0.31040000  1.0 -0.1025028078
C  C76  1  0.33605000  0.29515000  0.18960000  1.0 -0.1025028078
C  C77  1  0.63009000  0.60391000  0.66060000  1.0 -0.0135847459
C  C78  1  0.60391000  0.63009000  0.83940000  1.0 -0.0135847459
C  C79  1  0.36991000  0.39609000  0.33940000  1.0 -0.0135847459
C  C80  1  0.39609000  0.36991000  0.16060000  1.0 -0.0135847459
C  C81  1  0.61408000  0.52912000  0.66120000  1.0 -0.128246256
C  C82  1  0.52912000  0.61408000  0.83880000  1.0 -0.128246256
C  C83  1  0.38592000  0.47088000  0.33880000  1.0 -0.128246256
C  C84  1  0.47088000  0.38592000  0.16120000  1.0 -0.128246256
C  C85  1  0.67066000  0.51494000  0.68690000  1.0 0.0695510195
C  C86  1  0.51494000  0.67066000  0.81310000  1.0 0.0695510195
C  C87  1  0.32934000  0.48506000  0.31310000  1.0 0.0695510195
C  C88  1  0.48506000  0.32934000  0.18690000  1.0 0.0695510195
C  C89  1  0.74424000  0.57416000  0.71730000  1.0 -0.1420752395
C  C90  1  0.57416000  0.74424000  0.78270000  1.0 -0.1420752395
C  C91  1  0.25576000  0.42584000  0.28270000  1.0 -0.1420752395
C  C92  1  0.42584000  0.25576000  0.21730000  1.0 -0.1420752395
C  C93  1  0.56936000  0.61864000  0.63110000  1.0 0.5537142168
C  C94  1  0.61864000  0.56936000  0.86890000  1.0 0.5537142168
C  C95  1  0.43064000  0.38136000  0.36890000  1.0 0.5537142168
C  C96  1  0.38136000  0.43064000  0.13110000  1.0 0.5537142168
C  C97  1  0.65515000  0.43705000  0.68340000  1.0 0.0594177853
C  C98  1  0.43705000  0.65515000  0.81660000  1.0 0.0594177853
C  C99  1  0.34485000  0.56295000  0.31660000  1.0 0.0594177853
C  C100  1  0.56295000  0.34485000  0.18340000  1.0 0.0594177853
C  C101  1  0.62699000  0.40721000  0.62040000  1.0 -0.128246256
C  C102  1  0.40721000  0.62699000  0.87960000  1.0 -0.128246256
C  C103  1  0.37301000  0.59279000  0.37960000  1.0 -0.128246256
C  C104  1  0.59279000  0.37301000  0.12040000  1.0 -0.128246256
C  C105  1  0.61610000  0.33810000  0.61200000  1.0 0.002320255
C  C106  1  0.33810000  0.61610000  0.88800000  1.0 0.002320255
C  C107  1  0.38390000  0.66190000  0.38800000  1.0 0.002320255
C  C108  1  0.66190000  0.38390000  0.11200000  1.0 0.002320255
C  C109  1  0.63430000  0.29810000  0.66860000  1.0 -0.0909928669
C  C110  1  0.29810000  0.63430000  0.83140000  1.0 -0.0909928669
C  C111  1  0.36570000  0.70190000  0.33140000  1.0 -0.0909928669
C  C112  1  0.70190000  0.36570000  0.16860000  1.0 -0.0909928669
C  C113  1  0.66380000  0.32800000  0.73300000  1.0 -0.0909928669
C  C114  1  0.32800000  0.66380000  0.76700000  1.0 -0.0909928669
C  C115  1  0.33620000  0.67200000  0.26700000  1.0 -0.0909928669
C  C116  1  0.67200000  0.33620000  0.23300000  1.0 -0.0909928669
C  C117  1  0.67468000  0.39732000  0.74030000  1.0 -0.0448130582
C  C118  1  0.39732000  0.67468000  0.75970000  1.0 -0.0454766144
C  C119  1  0.32532000  0.60268000  0.25970000  1.0 -0.0448130582
C  C120  1  0.60268000  0.32532000  0.24030000  1.0 -0.0454766144
C  C121  1  0.58750000  0.30830000  0.54000000  1.0 0.5894748579
C  C122  1  0.30830000  0.58750000  0.96000000  1.0 0.5894748579
C  C123  1  0.41250000  0.69170000  0.46000000  1.0 0.5894748579
C  C124  1  0.69170000  0.41250000  0.04000000  1.0 0.5894748579
C  C125  1  0.70340000  0.42400000  0.81250000  1.0 0.5983902227
C  C126  1  0.42400000  0.70340000  0.68750000  1.0 0.5983902227
C  C127  1  0.29660000  0.57600000  0.18750000  1.0 0.5983902227
C  C128  1  0.57600000  0.29660000  0.31250000  1.0 0.5983902227
O  O1  1  0.04122000  0.84098000  0.87680000  1.0 -0.55629446
O  O2  1  0.84098000  0.04122000  0.62320000  1.0 -0.55629446
O  O3  1  0.95878000  0.15902000  0.12320000  1.0 -0.55629446
O  O4  1  0.15902000  0.95878000  0.37680000  1.0 -0.5518137921
O  O5  1  0.96952000  0.88888000  0.85850000  1.0 -0.5019422461
O  O6  1  0.88888000  0.96952000  0.64150000  1.0 -0.5019422461
O  O7  1  0.03048000  0.11112000  0.14150000  1.0 -0.5019422461
O  O8  1  0.11112000  0.03048000  0.35850000  1.0 -0.5019422461
O  O9  1  0.15237000  0.94803000  0.21450000  1.0 -0.5300276955
O  O10  1  0.94803000  0.15237000  0.28550000  1.0 -0.5300276955
O  O11  1  0.84763000  0.05197000  0.78550000  1.0 -0.5300276955
O  O12  1  0.05197000  0.84763000  0.71450000  1.0 -0.5300276955
O  O13  1  0.10867000  0.02193000  0.18300000  1.0 -0.5300276955
O  O14  1  0.02193000  0.10867000  0.31700000  1.0 -0.5300276955
O  O15  1  0.89133000  0.97807000  0.81700000  1.0 -0.5300276955
O  O16  1  0.97807000  0.89133000  0.68300000  1.0 -0.5300276955
O  O17  1  0.87255000  0.51425000  0.95390000  1.0 -0.4900042553
O  O18  1  0.51425000  0.87255000  0.54610000  1.0 -0.4900042553
O  O19  1  0.12745000  0.48575000  0.04610000  1.0 -0.4900042553
O  O20  1  0.48575000  0.12745000  0.45390000  1.0 -0.4900042553
O  O21  1  0.82189000  0.58251000  0.94310000  1.0 -0.5447217215
O  O22  1  0.58251000  0.82189000  0.55690000  1.0 -0.5447217215
O  O23  1  0.17811000  0.41749000  0.05690000  1.0 -0.5447217215
O  O24  1  0.41749000  0.17811000  0.44310000  1.0 -0.5518137921
O  O25  1  0.14955000  0.63065000  0.03450000  1.0 -0.5192898352
O  O26  1  0.63065000  0.14955000  0.46550000  1.0 -0.5192898352
O  O27  1  0.85045000  0.36935000  0.96550000  1.0 -0.5192898352
O  O28  1  0.36935000  0.85045000  0.53450000  1.0 -0.5192898352
O  O29  1  0.22618000  0.74802000  0.07440000  1.0 -0.4900042553
O  O30  1  0.74802000  0.22618000  0.42560000  1.0 -0.4900042553
O  O31  1  0.77382000  0.25198000  0.92560000  1.0 -0.4900042553
O  O32  1  0.25198000  0.77382000  0.57440000  1.0 -0.4900042553
O  O33  1  0.89065000  0.69695000  0.77210000  1.0 -0.5518137921
O  O34  1  0.69695000  0.89065000  0.72790000  1.0 -0.5518137921
O  O35  1  0.10935000  0.30305000  0.22790000  1.0 -0.5518137921
O  O36  1  0.30305000  0.10935000  0.27210000  1.0 -0.5518137921
O  O37  1  0.84965000  0.77255000  0.75990000  1.0 -0.5019422461
O  O38  1  0.77255000  0.84965000  0.74010000  1.0 -0.5019422461
O  O39  1  0.15035000  0.22745000  0.24010000  1.0 -0.5019422461
O  O40  1  0.22745000  0.15035000  0.25990000  1.0 -0.5019422461
O  O41  1  0.49958000  0.56202000  0.62000000  1.0 -0.4900042553
O  O42  1  0.56202000  0.49958000  0.88000000  1.0 -0.4900042553
O  O43  1  0.50042000  0.43798000  0.38000000  1.0 -0.4900042553
O  O44  1  0.43798000  0.50042000  0.12000000  1.0 -0.4900042553
O  O45  1  0.59170000  0.69010000  0.62070000  1.0 -0.5300276955
O  O46  1  0.69010000  0.59170000  0.87930000  1.0 -0.5300276955
O  O47  1  0.40830000  0.30990000  0.37930000  1.0 -0.5300276955
O  O48  1  0.30990000  0.40830000  0.12070000  1.0 -0.5300276955
O  O49  1  0.75599000  0.41681000  0.84660000  1.0 -0.5300276955
O  O50  1  0.41681000  0.75599000  0.65340000  1.0 -0.5300276955
O  O51  1  0.24401000  0.58319000  0.15340000  1.0 -0.5300276955
O  O52  1  0.58319000  0.24401000  0.34660000  1.0 -0.5300276955
O  O53  1  0.67174000  0.44706000  0.83470000  1.0 -0.5102529515
O  O54  1  0.44706000  0.67174000  0.66530000  1.0 -0.5102529515
O  O55  1  0.32826000  0.55294000  0.16530000  1.0 -0.5102529515
O  O56  1  0.55294000  0.32826000  0.33470000  1.0 -0.5102529515
O  O57  1  0.59516000  0.25544000  0.53450000  1.0 -0.5518137921
O  O58  1  0.25544000  0.59516000  0.96550000  1.0 -0.5518137921
O  O59  1  0.40484000  0.74456000  0.46550000  1.0 -0.5518137921
O  O60  1  0.74456000  0.40484000  0.03450000  1.0 -0.5518137921
O  O61  1  0.55925000  0.33855000  0.49470000  1.0 -0.5300276955
O  O62  1  0.33855000  0.55925000  0.00530000  1.0 -0.5300276955
O  O63  1  0.44075000  0.66145000  0.50530000  1.0 -0.5300276955
O  O64  1  0.66145000  0.44075000  0.99470000  1.0 -0.5300276955
