# DDEC6 charges by PACMAN v1.1 (https://github.com/mtap-research/PACMAN-charge/)
data_XUFWIF_ASR_pacman
_symmetry_space_group_name_H-M   'P 1'
_cell_length_a   18.07250000
_cell_length_b   18.07250000
_cell_length_c   17.18540000
_cell_angle_alpha   90.00000000
_cell_angle_beta   90.00000000
_cell_angle_gamma   90.00000000
_symmetry_Int_Tables_number   1
_chemical_formula_structural   Cu4H12C71O20
_chemical_formula_sum   'Cu8 H24 C142 O40'
_cell_volume   5613.01382476
_cell_formula_units_Z   2
loop_
 _symmetry_equiv_pos_site_id
 _symmetry_equiv_pos_as_xyz
  1  'x, y, z'
loop_
 _atom_site_type_symbol
 _atom_site_label
 _atom_site_symmetry_multiplicity
 _atom_site_fract_x
 _atom_site_fract_y
 _atom_site_fract_z
 _atom_site_occupancy
 _atom_site_charge
Cu  Cu1  1  0.71670000  0.70590000  0.45951000  1.0 0.8776416541
Cu  Cu2  1  0.28330000  0.29410000  0.45951000  1.0 0.8776416541
Cu  Cu3  1  0.70590000  0.28330000  0.45951000  1.0 0.8776416541
Cu  Cu4  1  0.29410000  0.71670000  0.45951000  1.0 0.8776416541
Cu  Cu5  1  0.79240000  0.78270000  0.35572000  1.0 0.9000892998
Cu  Cu6  1  0.20760000  0.21730000  0.35572000  1.0 0.9000892998
Cu  Cu7  1  0.78270000  0.20760000  0.35572000  1.0 0.9000892998
Cu  Cu8  1  0.21730000  0.79240000  0.35572000  1.0 0.9000892998
H  H1  1  0.00740000  0.74370000  0.44300000  1.0 0.1497293827
H  H2  1  0.99260000  0.25630000  0.44300000  1.0 0.1497293827
H  H3  1  0.74370000  0.99260000  0.44300000  1.0 0.1497293827
H  H4  1  0.25630000  0.00740000  0.44300000  1.0 0.1497293827
H  H5  1  0.11730000  0.65160000  0.62700000  1.0 0.1327760578
H  H6  1  0.88270000  0.34840000  0.62700000  1.0 0.1327760578
H  H7  1  0.65160000  0.88270000  0.62700000  1.0 0.1327760578
H  H8  1  0.34840000  0.11730000  0.62700000  1.0 0.1327760578
H  H9  1  0.89240000  0.63290000  0.61150000  1.0 0.1327760578
H  H10  1  0.10760000  0.36710000  0.61150000  1.0 0.1327760578
H  H11  1  0.63290000  0.10760000  0.61150000  1.0 0.1327760578
H  H12  1  0.36710000  0.89240000  0.61150000  1.0 0.1327760578
H  H13  1  0.84470000  0.60630000  0.19660000  1.0 0.1377830268
H  H14  1  0.15530000  0.39370000  0.19660000  1.0 0.1377830268
H  H15  1  0.60630000  0.15530000  0.19660000  1.0 0.1377830268
H  H16  1  0.39370000  0.84470000  0.19660000  1.0 0.1377830268
H  H17  1  0.74340000  0.49290000  0.37270000  1.0 0.1497293827
H  H18  1  0.25660000  0.50710000  0.37270000  1.0 0.1497293827
H  H19  1  0.49290000  0.25660000  0.37270000  1.0 0.1497293827
H  H20  1  0.50710000  0.74340000  0.37270000  1.0 0.1497293827
H  H21  1  0.83540000  0.38030000  0.19040000  1.0 0.1377830268
H  H22  1  0.16460000  0.61970000  0.19040000  1.0 0.1377830268
H  H23  1  0.38030000  0.16460000  0.19040000  1.0 0.1377830268
H  H24  1  0.61970000  0.83540000  0.19040000  1.0 0.1377830268
C  C1  1  0.00670000  0.71650000  0.49030000  1.0 -0.0960689574
C  C2  1  0.99330000  0.28350000  0.49030000  1.0 -0.0960689574
C  C3  1  0.71650000  0.99330000  0.49030000  1.0 -0.0960689574
C  C4  1  0.28350000  0.00670000  0.49030000  1.0 -0.0960689574
C  C5  1  0.07340000  0.70190000  0.53000000  1.0 -0.0071398015
C  C6  1  0.92660000  0.29810000  0.53000000  1.0 -0.0071398015
C  C7  1  0.70190000  0.92660000  0.53000000  1.0 -0.0071398015
C  C8  1  0.29810000  0.07340000  0.53000000  1.0 -0.0071398015
C  C9  1  0.07230000  0.66140000  0.60020000  1.0 -0.1324698902
C  C10  1  0.92770000  0.33860000  0.60020000  1.0 -0.1324698902
C  C11  1  0.66140000  0.92770000  0.60020000  1.0 -0.1324698902
C  C12  1  0.33860000  0.07230000  0.60020000  1.0 -0.1324698902
C  C13  1  0.00460000  0.63570000  0.63070000  1.0 0.0736369179
C  C14  1  0.99540000  0.36430000  0.63070000  1.0 0.0736369179
C  C15  1  0.63570000  0.99540000  0.63070000  1.0 0.0736369179
C  C16  1  0.36430000  0.00460000  0.63070000  1.0 0.0736369179
C  C17  1  0.93800000  0.65030000  0.59090000  1.0 -0.1324698902
C  C18  1  0.06200000  0.34970000  0.59090000  1.0 -0.1324698902
C  C19  1  0.65030000  0.06200000  0.59090000  1.0 -0.1324698902
C  C20  1  0.34970000  0.93800000  0.59090000  1.0 -0.1324698902
C  C21  1  0.93900000  0.69070000  0.52080000  1.0 -0.0181210517
C  C22  1  0.06100000  0.30930000  0.52080000  1.0 -0.0181210517
C  C23  1  0.69070000  0.06100000  0.52080000  1.0 -0.0181210517
C  C24  1  0.30930000  0.93900000  0.52080000  1.0 -0.0181210517
C  C25  1  0.94170000  0.45460000  0.99860000  1.0 -0.0181210517
C  C26  1  0.05830000  0.54540000  0.99860000  1.0 -0.0181210517
C  C27  1  0.45460000  0.05830000  0.99860000  1.0 -0.0181210517
C  C28  1  0.54540000  0.94170000  0.99860000  1.0 -0.0181210517
C  C29  1  0.89100000  0.45940000  0.06150000  1.0 0.0649285004
C  C30  1  0.10900000  0.54060000  0.06150000  1.0 0.0649285004
C  C31  1  0.45940000  0.10900000  0.06150000  1.0 0.0649285004
C  C32  1  0.54060000  0.89100000  0.06150000  1.0 0.0649285004
C  C33  1  0.84630000  0.49330000  0.18190000  1.0 0.1185140744
C  C34  1  0.15370000  0.50670000  0.18190000  1.0 0.1185140744
C  C35  1  0.49330000  0.15370000  0.18190000  1.0 0.1185140744
C  C36  1  0.50670000  0.84630000  0.18190000  1.0 0.1185140744
C  C37  1  0.82980000  0.56070000  0.21940000  1.0 -0.1635532542
C  C38  1  0.17020000  0.43930000  0.21940000  1.0 -0.1635532542
C  C39  1  0.56070000  0.17020000  0.21940000  1.0 -0.1635532542
C  C40  1  0.43930000  0.82980000  0.21940000  1.0 -0.1635532542
C  C41  1  0.79140000  0.56050000  0.29070000  1.0 -0.0030873747
C  C42  1  0.20860000  0.43950000  0.29070000  1.0 -0.0030873747
C  C43  1  0.56050000  0.20860000  0.29070000  1.0 -0.0030873747
C  C44  1  0.43950000  0.79140000  0.29070000  1.0 -0.0030873747
C  C45  1  0.76940000  0.49300000  0.32460000  1.0 -0.1096525616
C  C46  1  0.23060000  0.50700000  0.32460000  1.0 -0.1096525616
C  C47  1  0.49300000  0.23060000  0.32460000  1.0 -0.1096525616
C  C48  1  0.50700000  0.76940000  0.32460000  1.0 -0.1096525616
C  C49  1  0.78580000  0.42560000  0.28710000  1.0 0.013924994
C  C50  1  0.21420000  0.57440000  0.28710000  1.0 0.013924994
C  C51  1  0.42560000  0.21420000  0.28710000  1.0 0.013924994
C  C52  1  0.57440000  0.78580000  0.28710000  1.0 0.013924994
C  C53  1  0.82430000  0.42580000  0.21570000  1.0 -0.1635532542
C  C54  1  0.17570000  0.57420000  0.21570000  1.0 -0.1635532542
C  C55  1  0.42580000  0.17570000  0.21570000  1.0 -0.1635532542
C  C56  1  0.57420000  0.82430000  0.21570000  1.0 -0.1635532542
C  C57  1  0.93160000  0.53570000  0.94590000  1.0 0.0501188137
C  C58  1  0.06840000  0.46430000  0.94590000  1.0 0.0501188137
C  C59  1  0.53570000  0.06840000  0.94590000  1.0 0.0501188137
C  C60  1  0.46430000  0.93160000  0.94590000  1.0 0.0501188137
C  C61  1  0.98150000  0.53310000  0.00900000  1.0 0.0303775241
C  C62  1  0.01850000  0.46690000  0.00900000  1.0 0.0303775241
C  C63  1  0.53310000  0.01850000  0.00900000  1.0 0.0303775241
C  C64  1  0.46690000  0.98150000  0.00900000  1.0 0.0303775241
C  C65  1  0.95520000  0.51820000  0.08460000  1.0 0.0501188137
C  C66  1  0.04480000  0.48180000  0.08460000  1.0 0.0501188137
C  C67  1  0.51820000  0.04480000  0.08460000  1.0 0.0501188137
C  C68  1  0.48180000  0.95520000  0.08460000  1.0 0.0501188137
C  C69  1  0.87910000  0.50580000  0.09720000  1.0 0.0303775241
C  C70  1  0.12090000  0.49420000  0.09720000  1.0 0.0303775241
C  C71  1  0.50580000  0.12090000  0.09720000  1.0 0.0303775241
C  C72  1  0.49420000  0.87910000  0.09720000  1.0 0.0303775241
C  C73  1  0.82930000  0.50840000  0.03410000  1.0 0.0185473047
C  C74  1  0.17070000  0.49160000  0.03410000  1.0 0.0185473047
C  C75  1  0.50840000  0.17070000  0.03410000  1.0 0.0185473047
C  C76  1  0.49160000  0.82930000  0.03410000  1.0 0.0185473047
C  C77  1  0.85550000  0.52340000  0.95850000  1.0 0.1808889513
C  C78  1  0.14450000  0.47660000  0.95850000  1.0 0.1808889513
C  C79  1  0.52340000  0.14450000  0.95850000  1.0 0.1808889513
C  C80  1  0.47660000  0.85550000  0.95850000  1.0 0.1808889513
C  C81  1  0.92060000  0.48100000  0.13280000  1.0 -0.0181210517
C  C82  1  0.07940000  0.51900000  0.13280000  1.0 -0.0181210517
C  C83  1  0.48100000  0.07940000  0.13280000  1.0 -0.0181210517
C  C84  1  0.51900000  0.92060000  0.13280000  1.0 -0.0181210517
C  C85  1  0.00380000  0.51000000  0.14650000  1.0 -0.0664811484
C  C86  1  0.99620000  0.49000000  0.14650000  1.0 -0.0664811484
C  C87  1  0.51000000  0.99620000  0.14650000  1.0 -0.0664811484
C  C88  1  0.49000000  0.00380000  0.14650000  1.0 -0.0664811484
C  C89  1  0.99300000  0.61530000  0.71970000  1.0 0.0501188137
C  C90  1  0.00700000  0.38470000  0.71970000  1.0 0.0501188137
C  C91  1  0.61530000  0.00700000  0.71970000  1.0 0.0501188137
C  C92  1  0.38470000  0.99300000  0.71970000  1.0 0.0501188137
C  C93  1  0.98820000  0.53920000  0.73690000  1.0 0.0394445606
C  C94  1  0.01180000  0.46080000  0.73690000  1.0 0.0394445606
C  C95  1  0.53920000  0.01180000  0.73690000  1.0 0.0394445606
C  C96  1  0.46080000  0.98820000  0.73690000  1.0 0.0394445606
C  C97  1  0.97380000  0.51570000  0.81360000  1.0 0.0185473047
C  C98  1  0.02620000  0.48430000  0.81360000  1.0 0.0185473047
C  C99  1  0.51570000  0.02620000  0.81360000  1.0 0.0185473047
C  C100  1  0.48430000  0.97380000  0.81360000  1.0 0.0185473047
C  C101  1  0.96430000  0.56840000  0.87330000  1.0 0.0501188137
C  C102  1  0.03570000  0.43160000  0.87330000  1.0 0.0501188137
C  C103  1  0.56840000  0.03570000  0.87330000  1.0 0.0501188137
C  C104  1  0.43160000  0.96430000  0.87330000  1.0 0.0501188137
C  C105  1  0.96910000  0.64460000  0.85620000  1.0 0.1808889513
C  C106  1  0.03090000  0.35540000  0.85620000  1.0 0.1808889513
C  C107  1  0.64460000  0.03090000  0.85620000  1.0 0.1808889513
C  C108  1  0.35540000  0.96910000  0.85620000  1.0 0.1808889513
C  C109  1  0.98350000  0.66800000  0.77940000  1.0 -0.0030873747
C  C110  1  0.01650000  0.33200000  0.77940000  1.0 -0.0030873747
C  C111  1  0.66800000  0.01650000  0.77940000  1.0 -0.0030873747
C  C112  1  0.33200000  0.98350000  0.77940000  1.0 -0.0030873747
C  C113  1  0.00000000  0.50000000  0.67070000  1.0 -0.1096525616
C  C114  1  0.50000000  0.00000000  0.67070000  1.0 -0.1096525616
C  C115  1  0.00650000  0.57670000  0.68100000  1.0 -0.058916166
C  C116  1  0.99350000  0.42330000  0.68100000  1.0 -0.058916166
C  C117  1  0.57670000  0.99350000  0.68100000  1.0 -0.058916166
C  C118  1  0.42330000  0.00650000  0.68100000  1.0 -0.058916166
C  C119  1  0.02500000  0.60510000  0.75500000  1.0 0.0303775241
C  C120  1  0.97500000  0.39490000  0.75500000  1.0 0.0303775241
C  C121  1  0.60510000  0.97500000  0.75500000  1.0 0.0303775241
C  C122  1  0.39490000  0.02500000  0.75500000  1.0 0.0303775241
C  C123  1  0.03800000  0.56100000  0.82100000  1.0 0.0010262468
C  C124  1  0.96200000  0.43900000  0.82100000  1.0 0.0010262468
C  C125  1  0.56100000  0.96200000  0.82100000  1.0 0.0010262468
C  C126  1  0.43900000  0.03800000  0.82100000  1.0 0.0010262468
C  C127  1  0.77010000  0.35660000  0.33370000  1.0 0.5897190929
C  C128  1  0.22990000  0.64340000  0.33370000  1.0 0.5897190929
C  C129  1  0.35660000  0.22990000  0.33370000  1.0 0.5897190929
C  C130  1  0.64340000  0.77010000  0.33370000  1.0 0.5897190929
C  C131  1  0.77260000  0.63090000  0.32960000  1.0 0.5844034911
C  C132  1  0.22740000  0.36910000  0.32960000  1.0 0.5844034911
C  C133  1  0.63090000  0.22740000  0.32960000  1.0 0.5844034911
C  C134  1  0.36910000  0.77260000  0.32960000  1.0 0.5844034911
C  C135  1  0.86770000  0.71240000  0.48400000  1.0 0.6063810797
C  C136  1  0.13230000  0.28760000  0.48400000  1.0 0.6063810797
C  C137  1  0.71240000  0.13230000  0.48400000  1.0 0.6063810797
C  C138  1  0.28760000  0.86770000  0.48400000  1.0 0.6063810797
C  C139  1  0.14340000  0.72910000  0.49320000  1.0 0.5984892906
C  C140  1  0.85660000  0.27090000  0.49320000  1.0 0.5984892906
C  C141  1  0.72910000  0.85660000  0.49320000  1.0 0.5984892906
C  C142  1  0.27090000  0.14340000  0.49320000  1.0 0.5984892906
O  O1  1  0.95820000  0.69500000  0.91690000  1.0 -0.4150504111
O  O2  1  0.04180000  0.30500000  0.91690000  1.0 -0.4085643827
O  O3  1  0.69500000  0.04180000  0.91690000  1.0 -0.4085643827
O  O4  1  0.30500000  0.95820000  0.91690000  1.0 -0.4150504111
O  O5  1  0.86790000  0.75580000  0.42660000  1.0 -0.5186981647
O  O6  1  0.13210000  0.24420000  0.42660000  1.0 -0.5186981647
O  O7  1  0.75580000  0.13210000  0.42660000  1.0 -0.5186981647
O  O8  1  0.24420000  0.86790000  0.42660000  1.0 -0.5186981647
O  O9  1  0.80560000  0.68900000  0.51140000  1.0 -0.4983375906
O  O10  1  0.19440000  0.31100000  0.51140000  1.0 -0.4983375906
O  O11  1  0.68900000  0.19440000  0.51140000  1.0 -0.4983375906
O  O12  1  0.31100000  0.80560000  0.51140000  1.0 -0.4983375906
O  O13  1  0.13130000  0.77070000  0.42980000  1.0 -0.5739244311
O  O14  1  0.86870000  0.22930000  0.42980000  1.0 -0.5739244311
O  O15  1  0.77070000  0.86870000  0.42980000  1.0 -0.5739244311
O  O16  1  0.22930000  0.13130000  0.42980000  1.0 -0.5739244311
O  O17  1  0.20660000  0.71130000  0.51760000  1.0 -0.4764282941
O  O18  1  0.79340000  0.28870000  0.51760000  1.0 -0.4764282941
O  O19  1  0.71130000  0.79340000  0.51760000  1.0 -0.4764282941
O  O20  1  0.28870000  0.20660000  0.51760000  1.0 -0.4764282941
O  O21  1  0.80410000  0.69110000  0.31140000  1.0 -0.4983375906
O  O22  1  0.19590000  0.30890000  0.31140000  1.0 -0.4983375906
O  O23  1  0.69110000  0.19590000  0.31140000  1.0 -0.4983375906
O  O24  1  0.30890000  0.80410000  0.31140000  1.0 -0.4983375906
O  O25  1  0.79270000  0.29820000  0.30040000  1.0 -0.4983375906
O  O26  1  0.20730000  0.70180000  0.30040000  1.0 -0.4983375906
O  O27  1  0.29820000  0.20730000  0.30040000  1.0 -0.4983375906
O  O28  1  0.70180000  0.79270000  0.30040000  1.0 -0.4983375906
O  O29  1  0.73960000  0.36550000  0.40210000  1.0 -0.5329938172
O  O30  1  0.26040000  0.63450000  0.40210000  1.0 -0.5329938172
O  O31  1  0.36550000  0.26040000  0.40210000  1.0 -0.5329938172
O  O32  1  0.63450000  0.73960000  0.40210000  1.0 -0.5329938172
O  O33  1  0.73620000  0.62380000  0.39690000  1.0 -0.5361581086
O  O34  1  0.26380000  0.37620000  0.39690000  1.0 -0.5361581086
O  O35  1  0.62380000  0.26380000  0.39690000  1.0 -0.5361581086
O  O36  1  0.37620000  0.73620000  0.39690000  1.0 -0.5361581086
O  O37  1  0.80980000  0.52700000  0.89450000  1.0 -0.4085643827
O  O38  1  0.19020000  0.47300000  0.89450000  1.0 -0.4085643827
O  O39  1  0.52700000  0.19020000  0.89450000  1.0 -0.4085643827
O  O40  1  0.47300000  0.80980000  0.89450000  1.0 -0.4085643827
