# DDEC6 charges by PACMAN v1.1 (https://github.com/mtap-research/PACMAN-charge/)
data_XUFWOL_ASR_pacman
_symmetry_space_group_name_H-M   'P 1'
_cell_length_a   18.06480000
_cell_length_b   18.06480000
_cell_length_c   17.11320000
_cell_angle_alpha   90.00000000
_cell_angle_beta   90.00000000
_cell_angle_gamma   90.00000000
_symmetry_Int_Tables_number   1
_chemical_formula_structural   Cu4H12C99O20
_chemical_formula_sum   'Cu8 H24 C198 O40'
_cell_volume   5584.67033197
_cell_formula_units_Z   2
loop_
 _symmetry_equiv_pos_site_id
 _symmetry_equiv_pos_as_xyz
  1  'x, y, z'
loop_
 _atom_site_type_symbol
 _atom_site_label
 _atom_site_symmetry_multiplicity
 _atom_site_fract_x
 _atom_site_fract_y
 _atom_site_fract_z
 _atom_site_occupancy
 _atom_site_charge
Cu  Cu1  1  0.71410000  0.70930000  0.45289000  1.0 0.8993619939
Cu  Cu2  1  0.70930000  0.28590000  0.45289000  1.0 0.8993619939
Cu  Cu3  1  0.28590000  0.29070000  0.45289000  1.0 0.8993619939
Cu  Cu4  1  0.29070000  0.71410000  0.45289000  1.0 0.8993619939
Cu  Cu5  1  0.78960000  0.78690000  0.34758000  1.0 0.8944481751
Cu  Cu6  1  0.78690000  0.21040000  0.34758000  1.0 0.8944481751
Cu  Cu7  1  0.21040000  0.21310000  0.34758000  1.0 0.8993619939
Cu  Cu8  1  0.21310000  0.78960000  0.34758000  1.0 0.8944481751
H  H1  1  0.00140000  0.75390000  0.43870000  1.0 0.1396275843
H  H2  1  0.75390000  0.99860000  0.43870000  1.0 0.1396275843
H  H3  1  0.99860000  0.24610000  0.43870000  1.0 0.1396275843
H  H4  1  0.24610000  0.00140000  0.43870000  1.0 0.1396275843
H  H5  1  0.11240000  0.65960000  0.61890000  1.0 0.1305216617
H  H6  1  0.65960000  0.88760000  0.61890000  1.0 0.1305216617
H  H7  1  0.88760000  0.34040000  0.61890000  1.0 0.1305216617
H  H8  1  0.34040000  0.11240000  0.61890000  1.0 0.1305216617
H  H9  1  0.88850000  0.64790000  0.61010000  1.0 0.1396275843
H  H10  1  0.64790000  0.11150000  0.61010000  1.0 0.1396275843
H  H11  1  0.11150000  0.35210000  0.61010000  1.0 0.1396275843
H  H12  1  0.35210000  0.88850000  0.61010000  1.0 0.1396275843
H  H13  1  0.13950000  0.39000000  0.19590000  1.0 0.1396275843
H  H14  1  0.39000000  0.86050000  0.19590000  1.0 0.1396275843
H  H15  1  0.86050000  0.61000000  0.19590000  1.0 0.1396275843
H  H16  1  0.61000000  0.13950000  0.19590000  1.0 0.1396275843
H  H17  1  0.25030000  0.50020000  0.36580000  1.0 0.1396275843
H  H18  1  0.50020000  0.74970000  0.36580000  1.0 0.1396275843
H  H19  1  0.74970000  0.49980000  0.36580000  1.0 0.1396275843
H  H20  1  0.49980000  0.25030000  0.36580000  1.0 0.1396275843
H  H21  1  0.15620000  0.61360000  0.18720000  1.0 0.1396275843
H  H22  1  0.61360000  0.84380000  0.18720000  1.0 0.1396275843
H  H23  1  0.84380000  0.38640000  0.18720000  1.0 0.1396275843
H  H24  1  0.38640000  0.15620000  0.18720000  1.0 0.1396275843
C  C1  1  0.00110000  0.72680000  0.48630000  1.0 -0.1014725035
C  C2  1  0.72680000  0.99890000  0.48630000  1.0 -0.1014725035
C  C3  1  0.99890000  0.27320000  0.48630000  1.0 -0.1014725035
C  C4  1  0.27320000  0.00110000  0.48630000  1.0 -0.1014725035
C  C5  1  0.06750000  0.71040000  0.52370000  1.0 -0.0397547395
C  C6  1  0.71040000  0.93250000  0.52370000  1.0 -0.0397547395
C  C7  1  0.93250000  0.28960000  0.52370000  1.0 -0.0397547395
C  C8  1  0.28960000  0.06750000  0.52370000  1.0 -0.0397547395
C  C9  1  0.06710000  0.67070000  0.59330000  1.0 -0.1425069612
C  C10  1  0.67070000  0.93290000  0.59330000  1.0 -0.1425069612
C  C11  1  0.93290000  0.32930000  0.59330000  1.0 -0.1425069612
C  C12  1  0.32930000  0.06710000  0.59330000  1.0 -0.1425069612
C  C13  1  0.00040000  0.64750000  0.62550000  1.0 0.109102388
C  C14  1  0.64750000  0.99960000  0.62550000  1.0 0.109102388
C  C15  1  0.99960000  0.35250000  0.62550000  1.0 0.109102388
C  C16  1  0.35250000  0.00040000  0.62550000  1.0 0.109102388
C  C17  1  0.93410000  0.66380000  0.58810000  1.0 -0.1425069612
C  C18  1  0.66380000  0.06590000  0.58810000  1.0 -0.1425069612
C  C19  1  0.06590000  0.33620000  0.58810000  1.0 -0.1425069612
C  C20  1  0.33620000  0.93410000  0.58810000  1.0 -0.1425069612
C  C21  1  0.93440000  0.70350000  0.51850000  1.0 -0.0089464122
C  C22  1  0.70350000  0.06560000  0.51850000  1.0 -0.0089464122
C  C23  1  0.06560000  0.29650000  0.51850000  1.0 -0.0089464122
C  C24  1  0.29650000  0.93440000  0.51850000  1.0 -0.0089464122
C  C25  1  0.05700000  0.54500000  0.98250000  1.0 -0.0501224188
C  C26  1  0.54500000  0.94300000  0.98250000  1.0 -0.0501224188
C  C27  1  0.94300000  0.45500000  0.98250000  1.0 -0.0501224188
C  C28  1  0.45500000  0.05700000  0.98250000  1.0 -0.0501224188
C  C29  1  0.10610000  0.53600000  0.04800000  1.0 0.0592101604
C  C30  1  0.53600000  0.89390000  0.04800000  1.0 0.0592101604
C  C31  1  0.89390000  0.46400000  0.04800000  1.0 0.0592101604
C  C32  1  0.46400000  0.10610000  0.04800000  1.0 0.0592101604
C  C33  1  0.14140000  0.50190000  0.18060000  1.0 0.1205620198
C  C34  1  0.50190000  0.85860000  0.18060000  1.0 0.1205620198
C  C35  1  0.85860000  0.49810000  0.18060000  1.0 0.1205620198
C  C36  1  0.49810000  0.14140000  0.18060000  1.0 0.1205620198
C  C37  1  0.15670000  0.43520000  0.21770000  1.0 -0.1425069612
C  C38  1  0.43520000  0.84330000  0.21770000  1.0 -0.1425069612
C  C39  1  0.84330000  0.56480000  0.21770000  1.0 -0.1425069612
C  C40  1  0.56480000  0.15670000  0.21770000  1.0 -0.1425069612
C  C41  1  0.19730000  0.43460000  0.28670000  1.0 -0.0190232571
C  C42  1  0.43460000  0.80270000  0.28670000  1.0 -0.0190232571
C  C43  1  0.80270000  0.56540000  0.28670000  1.0 -0.0190232571
C  C44  1  0.56540000  0.19730000  0.28670000  1.0 -0.0190232571
C  C45  1  0.22250000  0.50070000  0.31870000  1.0 -0.1014725035
C  C46  1  0.50070000  0.77750000  0.31870000  1.0 -0.1014725035
C  C47  1  0.77750000  0.49930000  0.31870000  1.0 -0.1014725035
C  C48  1  0.49930000  0.22250000  0.31870000  1.0 -0.1014725035
C  C49  1  0.20720000  0.56740000  0.28160000  1.0 -0.0018921224
C  C50  1  0.56740000  0.79280000  0.28160000  1.0 -0.0018921224
C  C51  1  0.79280000  0.43260000  0.28160000  1.0 -0.0018921224
C  C52  1  0.43260000  0.20720000  0.28160000  1.0 -0.0018921224
C  C53  1  0.16660000  0.56800000  0.21260000  1.0 -0.1493876138
C  C54  1  0.56800000  0.83340000  0.21260000  1.0 -0.1493876138
C  C55  1  0.83340000  0.43200000  0.21260000  1.0 -0.1493876138
C  C56  1  0.43200000  0.16660000  0.21260000  1.0 -0.1493876138
C  C57  1  0.93230000  0.54450000  0.93870000  1.0 0.0016518038
C  C58  1  0.54450000  0.06770000  0.93870000  1.0 0.0016518038
C  C59  1  0.06770000  0.45550000  0.93870000  1.0 0.0016518038
C  C60  1  0.45550000  0.93230000  0.93870000  1.0 0.0016518038
C  C61  1  0.98210000  0.53460000  0.99930000  1.0 0.0293831781
C  C62  1  0.53460000  0.01790000  0.99930000  1.0 0.0293831781
C  C63  1  0.01790000  0.46540000  0.99930000  1.0 0.0293831781
C  C64  1  0.46540000  0.98210000  0.99930000  1.0 0.0293831781
C  C65  1  0.95770000  0.51440000  0.07310000  1.0 0.0387454295
C  C66  1  0.51440000  0.04230000  0.07310000  1.0 0.0387454295
C  C67  1  0.04230000  0.48560000  0.07310000  1.0 0.0387454295
C  C68  1  0.48560000  0.95770000  0.07310000  1.0 0.0387454295
C  C69  1  0.11670000  0.49600000  0.08650000  1.0 0.0387454295
C  C70  1  0.49600000  0.88330000  0.08650000  1.0 0.0387454295
C  C71  1  0.88330000  0.50400000  0.08650000  1.0 0.0387454295
C  C72  1  0.50400000  0.11670000  0.08650000  1.0 0.0387454295
C  C73  1  0.16650000  0.48600000  0.02600000  1.0 -0.121121333
C  C74  1  0.48600000  0.83350000  0.02600000  1.0 -0.121121333
C  C75  1  0.83350000  0.51400000  0.02600000  1.0 -0.121121333
C  C76  1  0.51400000  0.16650000  0.02600000  1.0 -0.121121333
C  C77  1  0.85800000  0.53420000  0.95210000  1.0 0.1205620198
C  C78  1  0.53420000  0.14200000  0.95210000  1.0 0.1205620198
C  C79  1  0.14200000  0.46580000  0.95210000  1.0 0.1205620198
C  C80  1  0.46580000  0.85800000  0.95210000  1.0 0.1205620198
C  C81  1  0.07540000  0.51400000  0.12000000  1.0 -0.0018921224
C  C82  1  0.51400000  0.92460000  0.12000000  1.0 -0.0018921224
C  C83  1  0.92460000  0.48600000  0.12000000  1.0 0.0016518038
C  C84  1  0.48600000  0.07540000  0.12000000  1.0 0.0016518038
C  C85  1  0.00150000  0.51300000  0.13960000  1.0 -0.066350582
C  C86  1  0.51300000  0.99850000  0.13960000  1.0 -0.066350582
C  C87  1  0.99850000  0.48700000  0.13960000  1.0 -0.066350582
C  C88  1  0.48700000  0.00150000  0.13960000  1.0 -0.066350582
C  C89  1  0.99750000  0.62070000  0.71250000  1.0 0.0069836621
C  C90  1  0.62070000  0.00250000  0.71250000  1.0 0.0069836621
C  C91  1  0.00250000  0.37930000  0.71250000  1.0 0.0069836621
C  C92  1  0.37930000  0.99750000  0.71250000  1.0 0.0069836621
C  C93  1  0.98900000  0.54570000  0.72780000  1.0 0.0387454295
C  C94  1  0.54570000  0.01100000  0.72780000  1.0 0.0387454295
C  C95  1  0.01100000  0.45430000  0.72780000  1.0 0.0472482099
C  C96  1  0.45430000  0.98900000  0.72780000  1.0 0.0472482099
C  C97  1  0.97220000  0.52200000  0.80310000  1.0 0.0069836621
C  C98  1  0.52200000  0.02780000  0.80310000  1.0 0.0069836621
C  C99  1  0.02780000  0.47800000  0.80310000  1.0 0.0069836621
C  C100  1  0.47800000  0.97220000  0.80310000  1.0 0.0069836621
C  C101  1  0.96400000  0.57330000  0.86290000  1.0 0.0069836621
C  C102  1  0.57330000  0.03600000  0.86290000  1.0 0.0016518038
C  C103  1  0.03600000  0.42670000  0.86290000  1.0 0.0016518038
C  C104  1  0.42670000  0.96400000  0.86290000  1.0 0.0016518038
C  C105  1  0.97250000  0.64840000  0.84750000  1.0 0.1396275843
C  C106  1  0.64840000  0.02750000  0.84750000  1.0 0.1396275843
C  C107  1  0.02750000  0.35160000  0.84750000  1.0 0.1396275843
C  C108  1  0.35160000  0.97250000  0.84750000  1.0 0.1396275843
C  C109  1  0.98930000  0.67210000  0.77230000  1.0 -0.0290998209
C  C110  1  0.67210000  0.01070000  0.77230000  1.0 -0.0290998209
C  C111  1  0.01070000  0.32790000  0.77230000  1.0 -0.0290998209
C  C112  1  0.32790000  0.98930000  0.77230000  1.0 -0.0290998209
C  C113  1  0.00000000  0.50000000  0.66530000  1.0 -0.1425069612
C  C114  1  0.50000000  0.00000000  0.66530000  1.0 -0.1425069612
C  C115  1  0.01480000  0.57470000  0.67890000  1.0 -0.0190232571
C  C116  1  0.57470000  0.98520000  0.67890000  1.0 -0.0190232571
C  C117  1  0.98520000  0.42530000  0.67890000  1.0 -0.0190232571
C  C118  1  0.42530000  0.01480000  0.67890000  1.0 -0.0190232571
C  C119  1  0.04550000  0.60440000  0.74740000  1.0 0.0387454295
C  C120  1  0.60440000  0.95450000  0.74740000  1.0 0.0387454295
C  C121  1  0.95450000  0.39560000  0.74740000  1.0 0.0387454295
C  C122  1  0.39560000  0.04550000  0.74740000  1.0 0.0387454295
C  C123  1  0.94710000  0.44850000  0.80860000  1.0 -0.0290998209
C  C124  1  0.44850000  0.05290000  0.80860000  1.0 -0.0290998209
C  C125  1  0.05290000  0.55150000  0.80860000  1.0 -0.0290998209
C  C126  1  0.55150000  0.94710000  0.80860000  1.0 -0.0290998209
C  C127  1  0.22940000  0.63560000  0.32480000  1.0 0.5876145411
C  C128  1  0.63560000  0.77060000  0.32480000  1.0 0.5876145411
C  C129  1  0.77060000  0.36440000  0.32480000  1.0 0.5876145411
C  C130  1  0.36440000  0.22940000  0.32480000  1.0 0.5876145411
C  C131  1  0.21570000  0.36450000  0.32520000  1.0 0.5876145411
C  C132  1  0.36450000  0.78430000  0.32520000  1.0 0.5876145411
C  C133  1  0.78430000  0.63550000  0.32520000  1.0 0.5876145411
C  C134  1  0.63550000  0.21570000  0.32520000  1.0 0.5876145411
C  C135  1  0.86560000  0.72380000  0.47610000  1.0 0.5876145411
C  C136  1  0.72380000  0.13440000  0.47610000  1.0 0.5876145411
C  C137  1  0.13440000  0.27620000  0.47610000  1.0 0.5876145411
C  C138  1  0.27620000  0.86560000  0.47610000  1.0 0.5876145411
C  C139  1  0.13350000  0.72780000  0.47910000  1.0 0.5876145411
C  C140  1  0.72780000  0.86650000  0.47910000  1.0 0.5848731539
C  C141  1  0.86650000  0.27220000  0.47910000  1.0 0.5848731539
C  C142  1  0.27220000  0.13350000  0.47910000  1.0 0.5848731539
C  C143  1  0.92200000  0.81300000  0.93000000  1.0 -0.0576240616
C  C144  1  0.81300000  0.07800000  0.93000000  1.0 -0.0576240616
C  C145  1  0.07800000  0.18700000  0.93000000  1.0 -0.0576240616
C  C146  1  0.18700000  0.92200000  0.93000000  1.0 -0.0576240616
C  C147  1  0.87700000  0.83900000  0.99000000  1.0 -0.0089464122
C  C148  1  0.83900000  0.12300000  0.99000000  1.0 -0.0089464122
C  C149  1  0.12300000  0.16100000  0.99000000  1.0 -0.0089464122
C  C150  1  0.16100000  0.87700000  0.99000000  1.0 -0.0089464122
C  C151  1  0.88200000  0.91200000  0.01300000  1.0 -0.0397547395
C  C152  1  0.91200000  0.11800000  0.01300000  1.0 -0.0397547395
C  C153  1  0.11800000  0.08800000  0.01300000  1.0 -0.0397547395
C  C154  1  0.08800000  0.88200000  0.01300000  1.0 -0.0397547395
C  C155  1  0.93000000  0.96000000  0.97600000  1.0 -0.0190232571
C  C156  1  0.96000000  0.07000000  0.97600000  1.0 -0.0290998209
C  C157  1  0.07000000  0.04000000  0.97600000  1.0 -0.0290998209
C  C158  1  0.04000000  0.93000000  0.97600000  1.0 -0.0290998209
C  C159  1  0.97500000  0.93500000  0.91600000  1.0 0.0699279449
C  C160  1  0.93500000  0.02500000  0.91600000  1.0 0.0699279449
C  C161  1  0.02500000  0.06500000  0.91600000  1.0 0.0592101604
C  C162  1  0.06500000  0.97500000  0.91600000  1.0 0.0592101604
C  C163  1  0.97100000  0.86100000  0.89300000  1.0 -0.0576240616
C  C164  1  0.86100000  0.02900000  0.89300000  1.0 -0.0501224188
C  C165  1  0.02900000  0.13900000  0.89300000  1.0 -0.0397547395
C  C166  1  0.13900000  0.97100000  0.89300000  1.0 -0.0397547395
C  C167  1  0.91800000  0.73700000  0.90800000  1.0 0.109102388
C  C168  1  0.73700000  0.08200000  0.90800000  1.0 0.109102388
C  C169  1  0.08200000  0.26300000  0.90800000  1.0 0.109102388
C  C170  1  0.26300000  0.91800000  0.90800000  1.0 0.109102388
C  C171  1  0.69840000  0.52920000  0.93230000  1.0 -0.0190232571
C  C172  1  0.52920000  0.30160000  0.93230000  1.0 -0.0190232571
C  C173  1  0.30160000  0.47080000  0.93230000  1.0 -0.0190232571
C  C174  1  0.47080000  0.69840000  0.93230000  1.0 -0.0190232571
C  C175  1  0.68700000  0.46600000  0.88710000  1.0 -0.0190232571
C  C176  1  0.46600000  0.31300000  0.88710000  1.0 -0.0190232571
C  C177  1  0.31300000  0.53400000  0.88710000  1.0 -0.0190232571
C  C178  1  0.53400000  0.68700000  0.88710000  1.0 -0.0190232571
C  C179  1  0.63300000  0.41500000  0.90900000  1.0 -0.0190232571
C  C180  1  0.41500000  0.36700000  0.90900000  1.0 -0.0190232571
C  C181  1  0.36700000  0.58500000  0.90900000  1.0 -0.0190232571
C  C182  1  0.58500000  0.63300000  0.90900000  1.0 -0.0190232571
C  C183  1  0.59200000  0.42600000  0.97700000  1.0 0.0293831781
C  C184  1  0.42600000  0.40800000  0.97700000  1.0 0.0293831781
C  C185  1  0.40800000  0.57400000  0.97700000  1.0 0.0293831781
C  C186  1  0.57400000  0.59200000  0.97700000  1.0 0.0293831781
C  C187  1  0.60390000  0.48900000  0.02200000  1.0 -0.0501224188
C  C188  1  0.48900000  0.39610000  0.02200000  1.0 -0.0501224188
C  C189  1  0.39610000  0.51100000  0.02200000  1.0 -0.0501224188
C  C190  1  0.51100000  0.60390000  0.02200000  1.0 -0.0501224188
C  C191  1  0.65700000  0.54100000  0.99980000  1.0 -0.0089464122
C  C192  1  0.54100000  0.34300000  0.99980000  1.0 -0.0089464122
C  C193  1  0.34300000  0.45900000  0.99980000  1.0 -0.0089464122
C  C194  1  0.45900000  0.65700000  0.99980000  1.0 -0.0089464122
C  C195  1  0.75450000  0.58500000  0.91000000  1.0 0.1628027512
C  C196  1  0.58500000  0.24550000  0.91000000  1.0 0.1628027512
C  C197  1  0.24550000  0.41500000  0.91000000  1.0 0.1628027512
C  C198  1  0.41500000  0.75450000  0.91000000  1.0 0.1628027512
O  O1  1  0.87400000  0.76250000  0.41220000  1.0 -0.5345440963
O  O2  1  0.76250000  0.12600000  0.41220000  1.0 -0.5345440963
O  O3  1  0.12600000  0.23750000  0.41220000  1.0 -0.5414666989
O  O4  1  0.23750000  0.87400000  0.41220000  1.0 -0.5345440963
O  O5  1  0.80680000  0.69700000  0.50690000  1.0 -0.5200570235
O  O6  1  0.69700000  0.19320000  0.50690000  1.0 -0.5200570235
O  O7  1  0.19320000  0.30300000  0.50690000  1.0 -0.5200570235
O  O8  1  0.30300000  0.80680000  0.50690000  1.0 -0.5200570235
O  O9  1  0.75940000  0.86680000  0.40930000  1.0 -0.5459684068
O  O10  1  0.86680000  0.24060000  0.40930000  1.0 -0.5459684068
O  O11  1  0.24060000  0.13320000  0.40930000  1.0 -0.5459684068
O  O12  1  0.13320000  0.75940000  0.40930000  1.0 -0.5459684068
O  O13  1  0.70670000  0.80530000  0.50840000  1.0 -0.507330591
O  O14  1  0.80530000  0.29330000  0.50840000  1.0 -0.507330591
O  O15  1  0.29330000  0.19470000  0.50840000  1.0 -0.507330591
O  O16  1  0.19470000  0.70670000  0.50840000  1.0 -0.5047206739
O  O17  1  0.18770000  0.30460000  0.30030000  1.0 -0.492385135
O  O18  1  0.30460000  0.81230000  0.30030000  1.0 -0.492385135
O  O19  1  0.81230000  0.69540000  0.30030000  1.0 -0.492385135
O  O20  1  0.69540000  0.18770000  0.30030000  1.0 -0.492385135
O  O21  1  0.20620000  0.70010000  0.29480000  1.0 -0.5414666989
O  O22  1  0.70010000  0.79380000  0.29480000  1.0 -0.5414666989
O  O23  1  0.79380000  0.29990000  0.29480000  1.0 -0.5414666989
O  O24  1  0.29990000  0.20620000  0.29480000  1.0 -0.5414666989
O  O25  1  0.26780000  0.63180000  0.38690000  1.0 -0.507330591
O  O26  1  0.63180000  0.73220000  0.38690000  1.0 -0.507330591
O  O27  1  0.73220000  0.36820000  0.38690000  1.0 -0.507330591
O  O28  1  0.36820000  0.26780000  0.38690000  1.0 -0.507330591
O  O29  1  0.26670000  0.36610000  0.37780000  1.0 -0.5459684068
O  O30  1  0.36610000  0.73330000  0.37780000  1.0 -0.5459684068
O  O31  1  0.73330000  0.63390000  0.37780000  1.0 -0.5459684068
O  O32  1  0.63390000  0.26670000  0.37780000  1.0 -0.5459684068
O  O33  1  0.81750000  0.55080000  0.88700000  1.0 -0.1493876138
O  O34  1  0.55080000  0.18250000  0.88700000  1.0 -0.1493876138
O  O35  1  0.18250000  0.44920000  0.88700000  1.0 -0.1493876138
O  O36  1  0.44920000  0.81750000  0.88700000  1.0 -0.1493876138
O  O37  1  0.98470000  0.70050000  0.91130000  1.0 -0.2172059276
O  O38  1  0.70050000  0.01530000  0.91130000  1.0 -0.2172059276
O  O39  1  0.01530000  0.29950000  0.91130000  1.0 -0.2172059276
O  O40  1  0.29950000  0.98470000  0.91130000  1.0 -0.2172059276
