# DDEC6 charges by PACMAN v1.1 (https://github.com/mtap-research/PACMAN-charge/)
data_XUFWEB_ASR_pacman
_symmetry_space_group_name_H-M   'P 1'
_cell_length_a   18.29590000
_cell_length_b   18.29590000
_cell_length_c   17.10990000
_cell_angle_alpha   90.00000000
_cell_angle_beta   90.00000000
_cell_angle_gamma   90.00000000
_symmetry_Int_Tables_number   1
_chemical_formula_structural   Cu4H12C79O20
_chemical_formula_sum   'Cu8 H24 C158 O40'
_cell_volume   5727.36718702
_cell_formula_units_Z   2
loop_
 _symmetry_equiv_pos_site_id
 _symmetry_equiv_pos_as_xyz
  1  'x, y, z'
loop_
 _atom_site_type_symbol
 _atom_site_label
 _atom_site_symmetry_multiplicity
 _atom_site_fract_x
 _atom_site_fract_y
 _atom_site_fract_z
 _atom_site_occupancy
 _atom_site_charge
Cu  Cu1  1  0.71276000  0.71259000  0.46057000  1.0 0.8694722919
Cu  Cu2  1  0.28724000  0.28741000  0.46057000  1.0 0.8694722919
Cu  Cu3  1  0.71259000  0.28724000  0.46057000  1.0 0.8694722919
Cu  Cu4  1  0.28741000  0.71276000  0.46057000  1.0 0.8694722919
Cu  Cu5  1  0.78744000  0.78760000  0.35466000  1.0 0.8764944939
Cu  Cu6  1  0.21256000  0.21240000  0.35466000  1.0 0.8764944939
Cu  Cu7  1  0.78760000  0.21256000  0.35466000  1.0 0.8764944939
Cu  Cu8  1  0.21240000  0.78744000  0.35466000  1.0 0.8764944939
H  H1  1  0.99860000  0.75610000  0.44430000  1.0 0.1460996536
H  H2  1  0.00140000  0.24390000  0.44430000  1.0 0.1460996536
H  H3  1  0.75610000  0.00140000  0.44430000  1.0 0.1460996536
H  H4  1  0.24390000  0.99860000  0.44430000  1.0 0.1460996536
H  H5  1  0.11230000  0.65310000  0.61520000  1.0 0.137981846
H  H6  1  0.88770000  0.34690000  0.61520000  1.0 0.137981846
H  H7  1  0.65310000  0.88770000  0.61520000  1.0 0.137981846
H  H8  1  0.34690000  0.11230000  0.61520000  1.0 0.137981846
H  H9  1  0.89080000  0.65010000  0.61750000  1.0 0.137981846
H  H10  1  0.10920000  0.34990000  0.61750000  1.0 0.137981846
H  H11  1  0.65010000  0.10920000  0.61750000  1.0 0.137981846
H  H12  1  0.34990000  0.89080000  0.61750000  1.0 0.137981846
H  H13  1  0.85190000  0.60860000  0.19730000  1.0 0.137981846
H  H14  1  0.14810000  0.39140000  0.19730000  1.0 0.137981846
H  H15  1  0.60860000  0.14810000  0.19730000  1.0 0.137981846
H  H16  1  0.39140000  0.85190000  0.19730000  1.0 0.137981846
H  H17  1  0.74260000  0.50280000  0.36950000  1.0 0.137981846
H  H18  1  0.25740000  0.49720000  0.36950000  1.0 0.137981846
H  H19  1  0.50280000  0.25740000  0.36950000  1.0 0.137981846
H  H20  1  0.49720000  0.74260000  0.36950000  1.0 0.137981846
H  H21  1  0.84690000  0.38720000  0.20100000  1.0 0.137981846
H  H22  1  0.15310000  0.61280000  0.20100000  1.0 0.137981846
H  H23  1  0.38720000  0.15310000  0.20100000  1.0 0.137981846
H  H24  1  0.61280000  0.84690000  0.20100000  1.0 0.137981846
C  C1  1  0.99943000  0.72781000  0.49086000  1.0 -0.1007042336
C  C2  1  0.00057000  0.27219000  0.49086000  1.0 -0.1007042336
C  C3  1  0.72781000  0.00057000  0.49086000  1.0 -0.1007042336
C  C4  1  0.27219000  0.99943000  0.49086000  1.0 -0.1007042336
C  C5  1  0.06580000  0.70800000  0.52423000  1.0 0.008553995
C  C6  1  0.93420000  0.29200000  0.52423000  1.0 0.008553995
C  C7  1  0.70800000  0.93420000  0.52423000  1.0 0.008553995
C  C8  1  0.29200000  0.06580000  0.52423000  1.0 0.008553995
C  C9  1  0.06697000  0.66666667  0.59236000  1.0 -0.1516844177
C  C10  1  0.93303000  0.33333333  0.59236000  1.0 -0.1516844177
C  C11  1  0.66666667  0.93303000  0.59236000  1.0 -0.1516844177
C  C12  1  0.33333333  0.06697000  0.59236000  1.0 -0.1516844177
C  C13  1  0.00177000  0.64506000  0.62711000  1.0 0.1014580248
C  C14  1  0.99823000  0.35494000  0.62711000  1.0 0.1014580248
C  C15  1  0.64506000  0.99823000  0.62711000  1.0 0.1014580248
C  C16  1  0.35494000  0.00177000  0.62711000  1.0 0.1014580248
C  C17  1  0.93540000  0.66490000  0.59374000  1.0 -0.1516844177
C  C18  1  0.06460000  0.33510000  0.59374000  1.0 -0.1516844177
C  C19  1  0.66490000  0.06460000  0.59374000  1.0 -0.1516844177
C  C20  1  0.33510000  0.93540000  0.59374000  1.0 -0.1516844177
C  C21  1  0.93423000  0.70625000  0.52561000  1.0 0.0198563455
C  C22  1  0.06577000  0.29375000  0.52561000  1.0 0.0198563455
C  C23  1  0.70625000  0.06577000  0.52561000  1.0 0.0198563455
C  C24  1  0.29375000  0.93423000  0.52561000  1.0 0.0198563455
C  C25  1  0.94580000  0.45930000  0.99310000  1.0 -0.0319946743
C  C26  1  0.05420000  0.54070000  0.99310000  1.0 -0.0319946743
C  C27  1  0.45930000  0.05420000  0.99310000  1.0 -0.0319946743
C  C28  1  0.54070000  0.94580000  0.99310000  1.0 -0.0319946743
C  C29  1  0.89390000  0.46590000  0.05310000  1.0 0.0558844754
C  C30  1  0.10610000  0.53410000  0.05310000  1.0 0.0546452483
C  C31  1  0.46590000  0.10610000  0.05310000  1.0 0.0558844754
C  C32  1  0.53410000  0.89390000  0.05310000  1.0 0.0558844754
C  C33  1  0.85607000  0.49759000  0.18847000  1.0 0.0917387275
C  C34  1  0.14393000  0.50241000  0.18847000  1.0 0.0917387275
C  C35  1  0.49759000  0.14393000  0.18847000  1.0 0.0917387275
C  C36  1  0.50241000  0.85607000  0.18847000  1.0 0.0917387275
C  C37  1  0.83641000  0.56432000  0.22111000  1.0 -0.1169909233
C  C38  1  0.16359000  0.43568000  0.22111000  1.0 -0.1169909233
C  C39  1  0.56432000  0.16359000  0.22111000  1.0 -0.1169909233
C  C40  1  0.43568000  0.83641000  0.22111000  1.0 -0.1169909233
C  C41  1  0.79412000  0.56625000  0.28858000  1.0 -0.0481578203
C  C42  1  0.20588000  0.43375000  0.28858000  1.0 -0.0481578203
C  C43  1  0.56625000  0.20588000  0.28858000  1.0 -0.0481578203
C  C44  1  0.43375000  0.79412000  0.28858000  1.0 -0.0481578203
C  C45  1  0.77150000  0.50144000  0.32340000  1.0 -0.0730029246
C  C46  1  0.22850000  0.49856000  0.32340000  1.0 -0.0730029246
C  C47  1  0.50144000  0.22850000  0.32340000  1.0 -0.0730029246
C  C48  1  0.49856000  0.77150000  0.32340000  1.0 -0.0730029246
C  C49  1  0.79117000  0.43471000  0.29075000  1.0 -0.0319946743
C  C50  1  0.20883000  0.56529000  0.29075000  1.0 -0.0319946743
C  C51  1  0.43471000  0.20883000  0.29075000  1.0 -0.0319946743
C  C52  1  0.56529000  0.79117000  0.29075000  1.0 -0.0319946743
C  C53  1  0.83345000  0.43278000  0.22329000  1.0 -0.1273735793
C  C54  1  0.16655000  0.56722000  0.22329000  1.0 -0.1273735793
C  C55  1  0.43278000  0.16655000  0.22329000  1.0 -0.1273735793
C  C56  1  0.56722000  0.83345000  0.22329000  1.0 -0.1273735793
C  C57  1  0.93410000  0.53590000  0.94614000  1.0 0.0311153784
C  C58  1  0.06590000  0.46410000  0.94614000  1.0 0.0311153784
C  C59  1  0.53590000  0.06590000  0.94614000  1.0 0.0311153784
C  C60  1  0.46410000  0.93410000  0.94614000  1.0 0.0311153784
C  C61  1  0.98270000  0.53160000  0.00854000  1.0 0.0027049871
C  C62  1  0.01730000  0.46840000  0.00854000  1.0 -0.000270403
C  C63  1  0.53160000  0.01730000  0.00854000  1.0 -0.000270403
C  C64  1  0.46840000  0.98270000  0.00854000  1.0 -0.000270403
C  C65  1  0.95725000  0.51370000  0.08277000  1.0 0.0412396465
C  C66  1  0.04275000  0.48630000  0.08277000  1.0 0.0412396465
C  C67  1  0.51370000  0.04275000  0.08277000  1.0 0.0412396465
C  C68  1  0.48630000  0.95725000  0.08277000  1.0 0.0412396465
C  C69  1  0.88321000  0.50022000  0.09461000  1.0 0.0558844754
C  C70  1  0.11679000  0.49978000  0.09461000  1.0 0.0558844754
C  C71  1  0.50022000  0.11679000  0.09461000  1.0 0.0558844754
C  C72  1  0.49978000  0.88321000  0.09461000  1.0 0.0558844754
C  C73  1  0.83460000  0.50450000  0.03221000  1.0 -0.1412624922
C  C74  1  0.16540000  0.49550000  0.03221000  1.0 -0.1412624922
C  C75  1  0.50450000  0.16540000  0.03221000  1.0 -0.1412624922
C  C76  1  0.49550000  0.83460000  0.03221000  1.0 -0.1412624922
C  C77  1  0.86000000  0.52240000  0.95797000  1.0 0.1281778446
C  C78  1  0.14000000  0.47760000  0.95797000  1.0 0.1281778446
C  C79  1  0.52240000  0.14000000  0.95797000  1.0 0.1281778446
C  C80  1  0.47760000  0.86000000  0.95797000  1.0 0.1281778446
C  C81  1  0.91210000  0.49290000  0.12730000  1.0 -0.0072999454
C  C82  1  0.08790000  0.50710000  0.12730000  1.0 -0.0072999454
C  C83  1  0.49290000  0.08790000  0.12730000  1.0 -0.0072999454
C  C84  1  0.50710000  0.91210000  0.12730000  1.0 -0.0072999454
C  C85  1  0.01140000  0.50580000  0.14460000  1.0 -0.0557832936
C  C86  1  0.98860000  0.49420000  0.14460000  1.0 -0.0557832936
C  C87  1  0.50580000  0.98860000  0.14460000  1.0 -0.0557832936
C  C88  1  0.49420000  0.01140000  0.14460000  1.0 -0.0557832936
C  C89  1  0.99960000  0.61890000  0.71810000  1.0 0.0412396465
C  C90  1  0.00040000  0.38110000  0.71810000  1.0 0.0412396465
C  C91  1  0.61890000  0.00040000  0.71810000  1.0 0.0412396465
C  C92  1  0.38110000  0.99960000  0.71810000  1.0 0.0412396465
C  C93  1  0.98990000  0.54460000  0.73190000  1.0 0.0546452483
C  C94  1  0.01010000  0.45540000  0.73190000  1.0 0.0546452483
C  C95  1  0.54460000  0.01010000  0.73190000  1.0 0.0546452483
C  C96  1  0.45540000  0.98990000  0.73190000  1.0 0.0558844754
C  C97  1  0.96830000  0.52050000  0.80530000  1.0 0.0027049871
C  C98  1  0.03170000  0.47950000  0.80530000  1.0 0.0027049871
C  C99  1  0.52050000  0.03170000  0.80530000  1.0 0.0027049871
C  C100  1  0.47950000  0.96830000  0.80530000  1.0 0.0027049871
C  C101  1  0.95640000  0.57050000  0.86510000  1.0 0.0311153784
C  C102  1  0.04360000  0.42950000  0.86510000  1.0 0.0311153784
C  C103  1  0.57050000  0.04360000  0.86510000  1.0 0.0311153784
C  C104  1  0.42950000  0.95640000  0.86510000  1.0 0.0311153784
C  C105  1  0.96600000  0.64480000  0.85130000  1.0 0.1224296508
C  C106  1  0.03400000  0.35520000  0.85130000  1.0 0.1224296508
C  C107  1  0.64480000  0.03400000  0.85130000  1.0 0.1224296508
C  C108  1  0.35520000  0.96600000  0.85130000  1.0 0.1224296508
C  C109  1  0.98760000  0.66900000  0.77790000  1.0 -0.0730029246
C  C110  1  0.01240000  0.33100000  0.77790000  1.0 -0.0730029246
C  C111  1  0.66900000  0.01240000  0.77790000  1.0 -0.0730029246
C  C112  1  0.33100000  0.98760000  0.77790000  1.0 -0.0730029246
C  C113  1  0.00000000  0.50000000  0.67020000  1.0 -0.1412624922
C  C114  1  0.50000000  0.00000000  0.67020000  1.0 -0.1412624922
C  C115  1  0.01040000  0.57840000  0.68440000  1.0 0.0198563455
C  C116  1  0.98960000  0.42160000  0.68440000  1.0 0.0311153784
C  C117  1  0.57840000  0.98960000  0.68440000  1.0 0.0311153784
C  C118  1  0.42160000  0.01040000  0.68440000  1.0 0.0198563455
C  C119  1  0.03140000  0.60740000  0.75780000  1.0 0.0412396465
C  C120  1  0.96860000  0.39260000  0.75780000  1.0 0.0412396465
C  C121  1  0.60740000  0.96860000  0.75780000  1.0 0.0412396465
C  C122  1  0.39260000  0.03140000  0.75780000  1.0 0.0412396465
C  C123  1  0.03790000  0.55260000  0.81710000  1.0 -0.0481578203
C  C124  1  0.96210000  0.44740000  0.81710000  1.0 -0.0446718106
C  C125  1  0.55260000  0.96210000  0.81710000  1.0 -0.0446718106
C  C126  1  0.44740000  0.03790000  0.81710000  1.0 -0.0446718106
C  C127  1  0.77590000  0.36600000  0.33080000  1.0 0.5823479561
C  C128  1  0.22410000  0.63400000  0.33080000  1.0 0.5823479561
C  C129  1  0.36600000  0.22410000  0.33080000  1.0 0.5823479561
C  C130  1  0.63400000  0.77590000  0.33080000  1.0 0.5823479561
C  C131  1  0.77690000  0.63110000  0.32810000  1.0 0.5440775273
C  C132  1  0.22310000  0.36890000  0.32810000  1.0 0.5440775273
C  C133  1  0.63110000  0.22310000  0.32810000  1.0 0.5440775273
C  C134  1  0.36890000  0.77690000  0.32810000  1.0 0.5440775273
C  C135  1  0.86150000  0.72400000  0.48390000  1.0 0.5823479561
C  C136  1  0.13850000  0.27600000  0.48390000  1.0 0.5823479561
C  C137  1  0.72400000  0.13850000  0.48390000  1.0 0.5823479561
C  C138  1  0.27600000  0.86150000  0.48390000  1.0 0.5823479561
C  C139  1  0.13690000  0.72590000  0.48220000  1.0 0.5877561835
C  C140  1  0.86310000  0.27410000  0.48220000  1.0 0.5877561835
C  C141  1  0.72590000  0.86310000  0.48220000  1.0 0.5877561835
C  C142  1  0.27410000  0.13690000  0.48220000  1.0 0.5877561835
C  C143  1  0.94700000  0.76730000  0.90640000  1.0 0.4768354265
C  C144  1  0.05300000  0.23270000  0.90640000  1.0 0.4768354265
C  C145  1  0.76730000  0.05300000  0.90640000  1.0 0.4768354265
C  C146  1  0.23270000  0.94700000  0.90640000  1.0 0.4768354265
C  C147  1  0.73930000  0.49580000  0.90440000  1.0 0.4684962896
C  C148  1  0.26070000  0.50420000  0.90440000  1.0 0.4684962896
C  C149  1  0.49580000  0.26070000  0.90440000  1.0 0.4684962896
C  C150  1  0.50420000  0.73930000  0.90440000  1.0 0.4684962896
C  C151  1  0.71100000  0.42600000  0.85900000  1.0 -0.3928733276
C  C152  1  0.28900000  0.57400000  0.85900000  1.0 -0.3928733276
C  C153  1  0.42600000  0.28900000  0.85900000  1.0 -0.3928733276
C  C154  1  0.57400000  0.71100000  0.85900000  1.0 -0.3928733276
C  C155  1  0.89300000  0.81430000  0.87400000  1.0 -0.471160415
C  C156  1  0.10700000  0.18570000  0.87400000  1.0 -0.471160415
C  C157  1  0.81430000  0.10700000  0.87400000  1.0 -0.471160415
C  C158  1  0.18570000  0.89300000  0.87400000  1.0 -0.471160415
O  O1  1  0.86900000  0.76280000  0.42420000  1.0 -0.5187435629
O  O2  1  0.13100000  0.23720000  0.42420000  1.0 -0.5187435629
O  O3  1  0.76280000  0.13100000  0.42420000  1.0 -0.5187435629
O  O4  1  0.23720000  0.86900000  0.42420000  1.0 -0.5187435629
O  O5  1  0.80640000  0.69860000  0.51230000  1.0 -0.4762856023
O  O6  1  0.19360000  0.30140000  0.51230000  1.0 -0.4762856023
O  O7  1  0.69860000  0.19360000  0.51230000  1.0 -0.4762856023
O  O8  1  0.30140000  0.80640000  0.51230000  1.0 -0.4762856023
O  O9  1  0.76330000  0.86780000  0.42080000  1.0 -0.5187435629
O  O10  1  0.23670000  0.13220000  0.42080000  1.0 -0.5187435629
O  O11  1  0.86780000  0.23670000  0.42080000  1.0 -0.5187435629
O  O12  1  0.13220000  0.76330000  0.42080000  1.0 -0.5187435629
O  O13  1  0.69960000  0.80710000  0.51160000  1.0 -0.5009431871
O  O14  1  0.30040000  0.19290000  0.51160000  1.0 -0.5009431871
O  O15  1  0.80710000  0.30040000  0.51160000  1.0 -0.5009431871
O  O16  1  0.19290000  0.69960000  0.51160000  1.0 -0.5009431871
O  O17  1  0.79960000  0.69400000  0.29750000  1.0 -0.5310204359
O  O18  1  0.20040000  0.30600000  0.29750000  1.0 -0.5310204359
O  O19  1  0.69400000  0.20040000  0.29750000  1.0 -0.5310204359
O  O20  1  0.30600000  0.79960000  0.29750000  1.0 -0.5310204359
O  O21  1  0.79870000  0.30720000  0.29870000  1.0 -0.5187435629
O  O22  1  0.20130000  0.69280000  0.29870000  1.0 -0.5187435629
O  O23  1  0.30720000  0.20130000  0.29870000  1.0 -0.5187435629
O  O24  1  0.69280000  0.79870000  0.29870000  1.0 -0.5187435629
O  O25  1  0.73790000  0.37010000  0.39160000  1.0 -0.5144535633
O  O26  1  0.26210000  0.62990000  0.39160000  1.0 -0.5144535633
O  O27  1  0.37010000  0.26210000  0.39160000  1.0 -0.5144535633
O  O28  1  0.62990000  0.73790000  0.39160000  1.0 -0.5144535633
O  O29  1  0.73840000  0.63060000  0.39220000  1.0 -0.5310204359
O  O30  1  0.26160000  0.36940000  0.39220000  1.0 -0.5310204359
O  O31  1  0.63060000  0.26160000  0.39220000  1.0 -0.5310204359
O  O32  1  0.36940000  0.73840000  0.39220000  1.0 -0.5310204359
O  O33  1  0.81520000  0.48790000  0.90100000  1.0 -0.2269682171
O  O34  1  0.18480000  0.51210000  0.90100000  1.0 -0.2269682171
O  O35  1  0.48790000  0.18480000  0.90100000  1.0 -0.2269682171
O  O36  1  0.51210000  0.81520000  0.90100000  1.0 -0.2269682171
O  O37  1  0.94580000  0.68960000  0.91480000  1.0 -0.2490130322
O  O38  1  0.05420000  0.31040000  0.91480000  1.0 -0.2490130322
O  O39  1  0.68960000  0.05420000  0.91480000  1.0 -0.2490130322
O  O40  1  0.31040000  0.94580000  0.91480000  1.0 -0.2490130322
