# DDEC6 charges by PACMAN v1.1 (https://github.com/mtap-research/PACMAN-charge/)
data_XUFWAX_ASR_pacman
_symmetry_space_group_name_H-M   'P 1'
_cell_length_a   18.27150000
_cell_length_b   18.27150000
_cell_length_c   17.09120000
_cell_angle_alpha   90.00000000
_cell_angle_beta   90.00000000
_cell_angle_gamma   90.00000000
_symmetry_Int_Tables_number   1
_chemical_formula_structural   Cu4H12C79O20
_chemical_formula_sum   'Cu8 H24 C158 O40'
_cell_volume   5705.85801961
_cell_formula_units_Z   2
loop_
 _symmetry_equiv_pos_site_id
 _symmetry_equiv_pos_as_xyz
  1  'x, y, z'
loop_
 _atom_site_type_symbol
 _atom_site_label
 _atom_site_symmetry_multiplicity
 _atom_site_fract_x
 _atom_site_fract_y
 _atom_site_fract_z
 _atom_site_occupancy
 _atom_site_charge
Cu  Cu1  1  0.71633000  0.70856000  0.46098000  1.0 0.8774426031
Cu  Cu2  1  0.28367000  0.29144000  0.46098000  1.0 0.8774426031
Cu  Cu3  1  0.70856000  0.28367000  0.46098000  1.0 0.8774426031
Cu  Cu4  1  0.29144000  0.71633000  0.46098000  1.0 0.8774426031
Cu  Cu5  1  0.79074000  0.78361000  0.35394000  1.0 0.8774426031
Cu  Cu6  1  0.20926000  0.21639000  0.35394000  1.0 0.8774426031
Cu  Cu7  1  0.78361000  0.20926000  0.35394000  1.0 0.8774426031
Cu  Cu8  1  0.21639000  0.79074000  0.35394000  1.0 0.8774426031
H  H1  1  0.00410000  0.75350000  0.44300000  1.0 0.1402542553
H  H2  1  0.99590000  0.24650000  0.44300000  1.0 0.1402542553
H  H3  1  0.75350000  0.99590000  0.44300000  1.0 0.1402542553
H  H4  1  0.24650000  0.00410000  0.44300000  1.0 0.1402542553
H  H5  1  0.11520000  0.65510000  0.61920000  1.0 0.1402542553
H  H6  1  0.88480000  0.34490000  0.61920000  1.0 0.1402542553
H  H7  1  0.65510000  0.88480000  0.61920000  1.0 0.1341348934
H  H8  1  0.34490000  0.11520000  0.61920000  1.0 0.1402542553
H  H9  1  0.89370000  0.64530000  0.61310000  1.0 0.1341348934
H  H10  1  0.10630000  0.35470000  0.61310000  1.0 0.1341348934
H  H11  1  0.64530000  0.10630000  0.61310000  1.0 0.1341348934
H  H12  1  0.35470000  0.89370000  0.61310000  1.0 0.1341348934
H  H13  1  0.14830000  0.39460000  0.20060000  1.0 0.1402542553
H  H14  1  0.85170000  0.60540000  0.20060000  1.0 0.1402542553
H  H15  1  0.39460000  0.85170000  0.20060000  1.0 0.1402542553
H  H16  1  0.60540000  0.14830000  0.20060000  1.0 0.1402542553
H  H17  1  0.26020000  0.50490000  0.36800000  1.0 0.1402542553
H  H18  1  0.73980000  0.49510000  0.36800000  1.0 0.1402542553
H  H19  1  0.50490000  0.73980000  0.36800000  1.0 0.1402542553
H  H20  1  0.49510000  0.26020000  0.36800000  1.0 0.1402542553
H  H21  1  0.15570000  0.61630000  0.19610000  1.0 0.1341348934
H  H22  1  0.84430000  0.38370000  0.19610000  1.0 0.1341348934
H  H23  1  0.61630000  0.84430000  0.19610000  1.0 0.1341348934
H  H24  1  0.38370000  0.15570000  0.19610000  1.0 0.1341348934
C  C1  1  0.00421000  0.72553000  0.48986000  1.0 -0.0945008871
C  C2  1  0.99579000  0.27447000  0.48986000  1.0 -0.0945008871
C  C3  1  0.72553000  0.99579000  0.48986000  1.0 -0.0945008871
C  C4  1  0.27447000  0.00421000  0.48986000  1.0 -0.0945008871
C  C5  1  0.07008000  0.70800000  0.52600000  1.0 -0.009487143
C  C6  1  0.92992000  0.29200000  0.52600000  1.0 -0.009487143
C  C7  1  0.70800000  0.92992000  0.52600000  1.0 -0.009487143
C  C8  1  0.29200000  0.07008000  0.52600000  1.0 -0.009487143
C  C9  1  0.07022000  0.66710000  0.59450000  1.0 -0.1420027455
C  C10  1  0.92978000  0.33290000  0.59450000  1.0 -0.1420027455
C  C11  1  0.66710000  0.92978000  0.59450000  1.0 -0.1420027455
C  C12  1  0.33290000  0.07022000  0.59450000  1.0 -0.1420027455
C  C13  1  0.00450000  0.64370000  0.62700000  1.0 0.0977654421
C  C14  1  0.99550000  0.35630000  0.62700000  1.0 0.0977654421
C  C15  1  0.64370000  0.99550000  0.62700000  1.0 0.0977654421
C  C16  1  0.35630000  0.00450000  0.62700000  1.0 0.0977654421
C  C17  1  0.93863000  0.66120000  0.59090000  1.0 -0.1420027455
C  C18  1  0.06137000  0.33880000  0.59090000  1.0 -0.1420027455
C  C19  1  0.66120000  0.06137000  0.59090000  1.0 -0.1420027455
C  C20  1  0.33880000  0.93863000  0.59090000  1.0 -0.1420027455
C  C21  1  0.93848000  0.70220000  0.52230000  1.0 -0.0236433427
C  C22  1  0.06152000  0.29780000  0.52230000  1.0 -0.0236433427
C  C23  1  0.70220000  0.06152000  0.52230000  1.0 -0.0236433427
C  C24  1  0.29780000  0.93848000  0.52230000  1.0 -0.0236433427
C  C25  1  0.05520000  0.54660000  0.99720000  1.0 -0.0745415379
C  C26  1  0.94480000  0.45340000  0.99720000  1.0 -0.0745415379
C  C27  1  0.54660000  0.94480000  0.99720000  1.0 -0.0745415379
C  C28  1  0.45340000  0.05520000  0.99720000  1.0 -0.0745415379
C  C29  1  0.10600000  0.54200000  0.05670000  1.0 0.0628879118
C  C30  1  0.89400000  0.45800000  0.05670000  1.0 0.0628879118
C  C31  1  0.54200000  0.89400000  0.05670000  1.0 0.0628879118
C  C32  1  0.45800000  0.10600000  0.05670000  1.0 0.0628879118
C  C33  1  0.14524000  0.50549000  0.18770000  1.0 0.0977654421
C  C34  1  0.85476000  0.49451000  0.18770000  1.0 0.0977654421
C  C35  1  0.50549000  0.85476000  0.18770000  1.0 0.0977654421
C  C36  1  0.49451000  0.14524000  0.18770000  1.0 0.0977654421
C  C37  1  0.16446000  0.43955000  0.22266000  1.0 -0.1420027455
C  C38  1  0.83554000  0.56045000  0.22266000  1.0 -0.1420027455
C  C39  1  0.43955000  0.83554000  0.22266000  1.0 -0.1420027455
C  C40  1  0.56045000  0.16446000  0.22266000  1.0 -0.1420027455
C  C41  1  0.20730000  0.43933000  0.28987000  1.0 -0.009487143
C  C42  1  0.79270000  0.56067000  0.28987000  1.0 -0.009487143
C  C43  1  0.43933000  0.79270000  0.28987000  1.0 -0.009487143
C  C44  1  0.56067000  0.20730000  0.28987000  1.0 -0.009487143
C  C45  1  0.23092000  0.50506000  0.32212000  1.0 -0.1000539041
C  C46  1  0.76908000  0.49494000  0.32212000  1.0 -0.1000539041
C  C47  1  0.50506000  0.76908000  0.32212000  1.0 -0.1000539041
C  C48  1  0.49494000  0.23092000  0.32212000  1.0 -0.1000539041
C  C49  1  0.21170000  0.57100000  0.28720000  1.0 0.0022939624
C  C50  1  0.78830000  0.42900000  0.28720000  1.0 0.0022939624
C  C51  1  0.57100000  0.78830000  0.28720000  1.0 0.0022939624
C  C52  1  0.42900000  0.21170000  0.28720000  1.0 0.0022939624
C  C53  1  0.16886000  0.57122000  0.21995000  1.0 -0.1476909619
C  C54  1  0.83114000  0.42878000  0.21995000  1.0 -0.1476909619
C  C55  1  0.57122000  0.83114000  0.21995000  1.0 -0.1476909619
C  C56  1  0.42878000  0.16886000  0.21995000  1.0 -0.1476909619
C  C57  1  0.93500000  0.53970000  0.94769000  1.0 0.005688407
C  C58  1  0.06500000  0.46030000  0.94769000  1.0 0.005688407
C  C59  1  0.53970000  0.06500000  0.94769000  1.0 0.005688407
C  C60  1  0.46030000  0.93500000  0.94769000  1.0 0.005688407
C  C61  1  0.98310000  0.53280000  0.01030000  1.0 0.0198474197
C  C62  1  0.01690000  0.46720000  0.01030000  1.0 0.0198474197
C  C63  1  0.53280000  0.01690000  0.01030000  1.0 0.0198474197
C  C64  1  0.46720000  0.98310000  0.01030000  1.0 0.0198474197
C  C65  1  0.95688000  0.51290000  0.08360000  1.0 0.0406793135
C  C66  1  0.04312000  0.48710000  0.08360000  1.0 0.0406793135
C  C67  1  0.51290000  0.04312000  0.08360000  1.0 0.0406793135
C  C68  1  0.48710000  0.95688000  0.08360000  1.0 0.0406793135
C  C69  1  0.11739000  0.50014000  0.09431000  1.0 0.0478853259
C  C70  1  0.88261000  0.49986000  0.09431000  1.0 0.0478853259
C  C71  1  0.50014000  0.88261000  0.09431000  1.0 0.0478853259
C  C72  1  0.49986000  0.11739000  0.09431000  1.0 0.0478853259
C  C73  1  0.16550000  0.49330000  0.03169000  1.0 -0.0838882875
C  C74  1  0.83450000  0.50670000  0.03169000  1.0 -0.0838882875
C  C75  1  0.49330000  0.83450000  0.03169000  1.0 -0.0838882875
C  C76  1  0.50670000  0.16550000  0.03169000  1.0 -0.0838882875
C  C77  1  0.86080000  0.52660000  0.95838000  1.0 0.1402542553
C  C78  1  0.13920000  0.47340000  0.95838000  1.0 0.1402542553
C  C79  1  0.52660000  0.13920000  0.95838000  1.0 0.1402542553
C  C80  1  0.47340000  0.86080000  0.95838000  1.0 0.1402542553
C  C81  1  0.08260000  0.51790000  0.13090000  1.0 -0.009487143
C  C82  1  0.91740000  0.48210000  0.13090000  1.0 -0.009487143
C  C83  1  0.51790000  0.91740000  0.13090000  1.0 -0.009487143
C  C84  1  0.48210000  0.08260000  0.13090000  1.0 -0.009487143
C  C85  1  0.00880000  0.50800000  0.14500000  1.0 -0.0838882875
C  C86  1  0.99120000  0.49200000  0.14500000  1.0 -0.0838882875
C  C87  1  0.50800000  0.99120000  0.14500000  1.0 -0.0838882875
C  C88  1  0.49200000  0.00880000  0.14500000  1.0 -0.0838882875
C  C89  1  0.99660000  0.61920000  0.71850000  1.0 0.0406793135
C  C90  1  0.00340000  0.38080000  0.71850000  1.0 0.033798728
C  C91  1  0.61920000  0.00340000  0.71850000  1.0 0.033798728
C  C92  1  0.38080000  0.99660000  0.71850000  1.0 0.0406793135
C  C93  1  0.98780000  0.54480000  0.73280000  1.0 0.033798728
C  C94  1  0.01220000  0.45520000  0.73280000  1.0 0.033798728
C  C95  1  0.54480000  0.01220000  0.73280000  1.0 0.033798728
C  C96  1  0.45520000  0.98780000  0.73280000  1.0 0.033798728
C  C97  1  0.96740000  0.52080000  0.80680000  1.0 0.005688407
C  C98  1  0.03260000  0.47920000  0.80680000  1.0 0.005688407
C  C99  1  0.52080000  0.03260000  0.80680000  1.0 0.005688407
C  C100  1  0.47920000  0.96740000  0.80680000  1.0 0.005688407
C  C101  1  0.95560000  0.57110000  0.86650000  1.0 0.0198474197
C  C102  1  0.04440000  0.42890000  0.86650000  1.0 0.0198474197
C  C103  1  0.57110000  0.04440000  0.86650000  1.0 0.0198474197
C  C104  1  0.42890000  0.95560000  0.86650000  1.0 0.0198474197
C  C105  1  0.96440000  0.64550000  0.85220000  1.0 0.1341348934
C  C106  1  0.03560000  0.35450000  0.85220000  1.0 0.1341348934
C  C107  1  0.64550000  0.03560000  0.85220000  1.0 0.1341348934
C  C108  1  0.35450000  0.96440000  0.85220000  1.0 0.1341348934
C  C109  1  0.98490000  0.66950000  0.77820000  1.0 -0.0236433427
C  C110  1  0.01510000  0.33050000  0.77820000  1.0 -0.0236433427
C  C111  1  0.66950000  0.01510000  0.77820000  1.0 -0.0236433427
C  C112  1  0.33050000  0.98490000  0.77820000  1.0 -0.0236433427
C  C113  1  0.00000000  0.50000000  0.67060000  1.0 -0.1000539041
C  C114  1  0.50000000  0.00000000  0.67060000  1.0 -0.1000539041
C  C115  1  0.01230000  0.57940000  0.68210000  1.0 0.0022939624
C  C116  1  0.98770000  0.42060000  0.68210000  1.0 0.0022939624
C  C117  1  0.57940000  0.98770000  0.68210000  1.0 0.0022939624
C  C118  1  0.42060000  0.01230000  0.68210000  1.0 0.0022939624
C  C119  1  0.03150000  0.60570000  0.75790000  1.0 0.0406793135
C  C120  1  0.96850000  0.39430000  0.75790000  1.0 0.0406793135
C  C121  1  0.60570000  0.96850000  0.75790000  1.0 0.0406793135
C  C122  1  0.39430000  0.03150000  0.75790000  1.0 0.0406793135
C  C123  1  0.95780000  0.44640000  0.81840000  1.0 -0.0438063991
C  C124  1  0.04220000  0.55360000  0.81840000  1.0 -0.0450596948
C  C125  1  0.44640000  0.04220000  0.81840000  1.0 -0.0438063991
C  C126  1  0.55360000  0.95780000  0.81840000  1.0 -0.0438063991
C  C127  1  0.22760000  0.64200000  0.32820000  1.0 0.5872223425
C  C128  1  0.77240000  0.35800000  0.32820000  1.0 0.5872223425
C  C129  1  0.64200000  0.77240000  0.32820000  1.0 0.5872223425
C  C130  1  0.35800000  0.22760000  0.32820000  1.0 0.5872223425
C  C131  1  0.22210000  0.37050000  0.33340000  1.0 0.5818492222
C  C132  1  0.77790000  0.62950000  0.33340000  1.0 0.5818492222
C  C133  1  0.37050000  0.77790000  0.33340000  1.0 0.5818492222
C  C134  1  0.62950000  0.22210000  0.33340000  1.0 0.5818492222
C  C135  1  0.86870000  0.71950000  0.48440000  1.0 0.5818492222
C  C136  1  0.13130000  0.28050000  0.48440000  1.0 0.5818492222
C  C137  1  0.71950000  0.13130000  0.48440000  1.0 0.5818492222
C  C138  1  0.28050000  0.86870000  0.48440000  1.0 0.5818492222
C  C139  1  0.13860000  0.72760000  0.48360000  1.0 0.5818492222
C  C140  1  0.86140000  0.27240000  0.48360000  1.0 0.5818492222
C  C141  1  0.72760000  0.86140000  0.48360000  1.0 0.5818492222
C  C142  1  0.27240000  0.13860000  0.48360000  1.0 0.5818492222
C  C143  1  0.92660000  0.76370000  0.91140000  1.0 0.4911758277
C  C144  1  0.07340000  0.23630000  0.91140000  1.0 0.4911758277
C  C145  1  0.76370000  0.07340000  0.91140000  1.0 0.4911758277
C  C146  1  0.23630000  0.92660000  0.91140000  1.0 0.4911758277
C  C147  1  0.73880000  0.51740000  0.90160000  1.0 0.4823853719
C  C148  1  0.26120000  0.48260000  0.90160000  1.0 0.4823853719
C  C149  1  0.51740000  0.26120000  0.90160000  1.0 0.4823853719
C  C150  1  0.48260000  0.73880000  0.90160000  1.0 0.4823853719
C  C151  1  0.69490000  0.45430000  0.92500000  1.0 -0.4757705581
C  C152  1  0.30510000  0.54570000  0.92500000  1.0 -0.4732268235
C  C153  1  0.45430000  0.30510000  0.92500000  1.0 -0.4732268235
C  C154  1  0.54570000  0.69490000  0.92500000  1.0 -0.4732268235
C  C155  1  0.89000000  0.80570000  0.84200000  1.0 -0.4626024094
C  C156  1  0.11000000  0.19430000  0.84200000  1.0 -0.4626024094
C  C157  1  0.80570000  0.11000000  0.84200000  1.0 -0.4626024094
C  C158  1  0.19430000  0.89000000  0.84200000  1.0 -0.4626024094
O  O1  1  0.87260000  0.76200000  0.42090000  1.0 -0.5584280145
O  O2  1  0.12740000  0.23800000  0.42090000  1.0 -0.5584280145
O  O3  1  0.76200000  0.12740000  0.42090000  1.0 -0.5584280145
O  O4  1  0.23800000  0.87260000  0.42090000  1.0 -0.5584280145
O  O5  1  0.80890000  0.69630000  0.51290000  1.0 -0.50375628
O  O6  1  0.19110000  0.30370000  0.51290000  1.0 -0.50375628
O  O7  1  0.69630000  0.19110000  0.51290000  1.0 -0.50375628
O  O8  1  0.30370000  0.80890000  0.51290000  1.0 -0.50375628
O  O9  1  0.13390000  0.76360000  0.42260000  1.0 -0.50375628
O  O10  1  0.86610000  0.23640000  0.42260000  1.0 -0.50375628
O  O11  1  0.76360000  0.86610000  0.42260000  1.0 -0.50375628
O  O12  1  0.23640000  0.13390000  0.42260000  1.0 -0.50375628
O  O13  1  0.19730000  0.70470000  0.51810000  1.0 -0.5300898206
O  O14  1  0.80270000  0.29530000  0.51810000  1.0 -0.5300898206
O  O15  1  0.70470000  0.80270000  0.51810000  1.0 -0.5300898206
O  O16  1  0.29530000  0.19730000  0.51810000  1.0 -0.5300898206
O  O17  1  0.19770000  0.31210000  0.30070000  1.0 -0.5300898206
O  O18  1  0.80230000  0.68790000  0.30070000  1.0 -0.5300898206
O  O19  1  0.31210000  0.80230000  0.30070000  1.0 -0.5300898206
O  O20  1  0.68790000  0.19770000  0.30070000  1.0 -0.5300898206
O  O21  1  0.20430000  0.69980000  0.30200000  1.0 -0.4732268235
O  O22  1  0.79570000  0.30020000  0.30200000  1.0 -0.4732268235
O  O23  1  0.69980000  0.79570000  0.30200000  1.0 -0.4732268235
O  O24  1  0.30020000  0.20430000  0.30200000  1.0 -0.4732268235
O  O25  1  0.26470000  0.63450000  0.39340000  1.0 -0.5584280145
O  O26  1  0.73530000  0.36550000  0.39340000  1.0 -0.5584280145
O  O27  1  0.63450000  0.73530000  0.39340000  1.0 -0.5584280145
O  O28  1  0.36550000  0.26470000  0.39340000  1.0 -0.5584280145
O  O29  1  0.26080000  0.37350000  0.39120000  1.0 -0.4852418256
O  O30  1  0.73920000  0.62650000  0.39120000  1.0 -0.4852418256
O  O31  1  0.37350000  0.73920000  0.39120000  1.0 -0.4852418256
O  O32  1  0.62650000  0.26080000  0.39120000  1.0 -0.4852418256
O  O33  1  0.81320000  0.52300000  0.89580000  1.0 -0.1838493895
O  O34  1  0.18680000  0.47700000  0.89580000  1.0 -0.1838493895
O  O35  1  0.52300000  0.18680000  0.89580000  1.0 -0.1838493895
O  O36  1  0.47700000  0.81320000  0.89580000  1.0 -0.1838493895
O  O37  1  0.94630000  0.68940000  0.91750000  1.0 -0.2335185013
O  O38  1  0.05370000  0.31060000  0.91750000  1.0 -0.2335185013
O  O39  1  0.68940000  0.05370000  0.91750000  1.0 -0.2335185013
O  O40  1  0.31060000  0.94630000  0.91750000  1.0 -0.2351416153
