# DDEC6 charges by PACMAN v1.1 (https://github.com/mtap-research/PACMAN-charge/)
data_XUGPEX_FSR_pacman
_symmetry_space_group_name_H-M   'P 1'
_cell_length_a   14.30980000
_cell_length_b   7.54240000
_cell_length_c   15.89530000
_cell_angle_alpha   90.00000000
_cell_angle_beta   99.90000000
_cell_angle_gamma   90.00000000
_symmetry_Int_Tables_number   1
_chemical_formula_structural   FeH8Pt(C3N)6
_chemical_formula_sum   'Fe2 H16 Pt2 C36 N12'
_cell_volume   1690.03727872
_cell_formula_units_Z   2
loop_
 _symmetry_equiv_pos_site_id
 _symmetry_equiv_pos_as_xyz
  1  'x, y, z'
loop_
 _atom_site_type_symbol
 _atom_site_label
 _atom_site_symmetry_multiplicity
 _atom_site_fract_x
 _atom_site_fract_y
 _atom_site_fract_z
 _atom_site_occupancy
 _atom_site_charge
Fe  Fe1  1  0.50000000  0.00000000  0.00000000  1.0 0.7744704901
Fe  Fe2  1  0.00000000  0.00000000  0.00000000  1.0 0.7969590246
H  H1  1  0.94740000  0.73810000  0.69870000  1.0 0.1311405569
H  H2  1  0.98490000  0.74480000  0.84340000  1.0 0.1117980648
H  H3  1  0.05260000  0.73810000  0.30130000  1.0 0.1311405569
H  H4  1  0.01510000  0.74480000  0.15660000  1.0 0.1117980648
H  H5  1  0.05260000  0.26190000  0.30130000  1.0 0.1311405569
H  H6  1  0.01510000  0.25520000  0.15660000  1.0 0.1117980648
H  H7  1  0.94740000  0.26190000  0.69870000  1.0 0.1311405569
H  H8  1  0.98490000  0.25520000  0.84340000  1.0 0.1117980648
H  H9  1  0.71650000  0.00000000  0.07870000  1.0 0.1117980648
H  H10  1  0.49710000  0.00000000  0.19370000  1.0 0.122041282
H  H11  1  0.81850000  0.00000000  0.20600000  1.0 0.1311405569
H  H12  1  0.59140000  0.00000000  0.32340000  1.0 0.1375431909
H  H13  1  0.28350000  0.00000000  0.92130000  1.0 0.1117980648
H  H14  1  0.50290000  0.00000000  0.80630000  1.0 0.122041282
H  H15  1  0.18150000  0.00000000  0.79400000  1.0 0.1311405569
H  H16  1  0.40860000  0.00000000  0.67660000  1.0 0.1375431909
Pt  Pt1  1  0.25980000  0.50000000  0.02951000  1.0 0.1375431909
Pt  Pt2  1  0.74020000  0.50000000  0.97049000  1.0 0.1375431909
C  C1  1  0.35900000  0.31190000  0.04100000  1.0 0.0561898767
C  C2  1  0.16150000  0.68710000  0.01530000  1.0 0.042044156
C  C3  1  0.95200000  0.84700000  0.72670000  1.0 -0.1623388833
C  C4  1  0.97430000  0.85160000  0.81400000  1.0 0.0840883597
C  C5  1  0.64100000  0.31190000  0.95900000  1.0 0.0561898767
C  C6  1  0.83850000  0.68710000  0.98470000  1.0 0.042044156
C  C7  1  0.04800000  0.84700000  0.27330000  1.0 -0.1623388833
C  C8  1  0.02570000  0.85160000  0.18600000  1.0 0.0840883597
C  C9  1  0.64100000  0.68810000  0.95900000  1.0 0.0561898767
C  C10  1  0.83850000  0.31290000  0.98470000  1.0 0.042044156
C  C11  1  0.04800000  0.15300000  0.27330000  1.0 -0.1623388833
C  C12  1  0.02570000  0.14840000  0.18600000  1.0 0.0840883597
C  C13  1  0.35900000  0.68810000  0.04100000  1.0 0.0561898767
C  C14  1  0.16150000  0.31290000  0.01530000  1.0 0.042044156
C  C15  1  0.95200000  0.15300000  0.72670000  1.0 -0.1623388833
C  C16  1  0.97430000  0.14840000  0.81400000  1.0 0.0840883597
C  C17  1  0.69130000  0.00000000  0.12890000  1.0 0.0910210914
C  C18  1  0.56250000  0.00000000  0.19640000  1.0 0.0910210914
C  C19  1  0.75340000  0.00000000  0.20550000  1.0 -0.17597771
C  C20  1  0.61830000  0.00000000  0.27410000  1.0 -0.1623388833
C  C21  1  0.71950000  0.00000000  0.27990000  1.0 0.1693619012
C  C22  1  0.77900000  0.00000000  0.36240000  1.0 -0.0752944008
C  C23  1  0.81980000  0.00000000  0.43430000  1.0 -0.053162155
C  C24  1  0.86850000  0.00000000  0.51440000  1.0 -0.0575646975
C  C25  1  0.90220000  0.00000000  0.59240000  1.0 -0.0686783859
C  C26  1  0.93620000  0.00000000  0.68020000  1.0 0.1532574712
C  C27  1  0.30870000  0.00000000  0.87110000  1.0 0.0910210914
C  C28  1  0.43750000  0.00000000  0.80360000  1.0 0.0910210914
C  C29  1  0.24660000  0.00000000  0.79450000  1.0 -0.17597771
C  C30  1  0.38170000  0.00000000  0.72590000  1.0 -0.1623388833
C  C31  1  0.28050000  0.00000000  0.72010000  1.0 0.1693619012
C  C32  1  0.22100000  0.00000000  0.63760000  1.0 -0.0686783859
C  C33  1  0.18020000  0.00000000  0.56570000  1.0 -0.053162155
C  C34  1  0.13150000  0.00000000  0.48560000  1.0 -0.0575646975
C  C35  1  0.09780000  0.00000000  0.40760000  1.0 -0.0686783859
C  C36  1  0.06380000  0.00000000  0.31980000  1.0 0.1532574712
N  N1  1  0.41380000  0.20250000  0.04160000  1.0 -0.3551957787
N  N2  1  0.10660000  0.79770000  0.00660000  1.0 -0.3660998822
N  N3  1  0.58620000  0.20250000  0.95840000  1.0 -0.3551957787
N  N4  1  0.89340000  0.79770000  0.99340000  1.0 -0.3660998822
N  N5  1  0.58620000  0.79750000  0.95840000  1.0 -0.3551957787
N  N6  1  0.89340000  0.20230000  0.99340000  1.0 -0.3660998822
N  N7  1  0.41380000  0.79750000  0.04160000  1.0 -0.3551957787
N  N8  1  0.10660000  0.20230000  0.00660000  1.0 -0.3660998822
N  N9  1  0.59680000  0.00000000  0.12260000  1.0 -0.2119936564
N  N10  1  0.40320000  0.00000000  0.87740000  1.0 -0.2119936564
N  N11  1  0.98140000  0.00000000  0.85830000  1.0 -0.2119936564
N  N12  1  0.01860000  0.00000000  0.14170000  1.0 -0.2119936564
