# DDEC6 charges by PACMAN v1.1 (https://github.com/mtap-research/PACMAN-charge/)
data_XUGPIB_ASR_pacman
_symmetry_space_group_name_H-M   'P 1'
_cell_length_a   13.65880000
_cell_length_b   7.07900000
_cell_length_c   16.37280000
_cell_angle_alpha   90.00000000
_cell_angle_beta   105.75100000
_cell_angle_gamma   90.00000000
_symmetry_Int_Tables_number   1
_chemical_formula_structural   FeNiH8(C3N)6
_chemical_formula_sum   'Fe2 Ni2 H16 C36 N12'
_cell_volume   1523.65210817
_cell_formula_units_Z   2
loop_
 _symmetry_equiv_pos_site_id
 _symmetry_equiv_pos_as_xyz
  1  'x, y, z'
loop_
 _atom_site_type_symbol
 _atom_site_label
 _atom_site_symmetry_multiplicity
 _atom_site_fract_x
 _atom_site_fract_y
 _atom_site_fract_z
 _atom_site_occupancy
 _atom_site_charge
Fe  Fe1  1  0.50000000  0.00000000  0.00000000  1.0 0.5854726255
Fe  Fe2  1  0.00000000  0.00000000  0.00000000  1.0 0.599066478
Ni  Ni1  1  0.26106000  0.50000000  0.02923000  1.0 0.0880248368
Ni  Ni2  1  0.73894000  0.50000000  0.97077000  1.0 0.0880248368
H  H1  1  0.94240000  0.71950000  0.71470000  1.0 0.1315532208
H  H2  1  0.97150000  0.72440000  0.85930000  1.0 0.1230803003
H  H3  1  0.05760000  0.71950000  0.28530000  1.0 0.1315532208
H  H4  1  0.02850000  0.72440000  0.14070000  1.0 0.1230803003
H  H5  1  0.05760000  0.28050000  0.28530000  1.0 0.1315532208
H  H6  1  0.02850000  0.27560000  0.14070000  1.0 0.1230803003
H  H7  1  0.94240000  0.28050000  0.71470000  1.0 0.1315532208
H  H8  1  0.97150000  0.27560000  0.85930000  1.0 0.1230803003
H  H9  1  0.72200000  0.00000000  0.08980000  1.0 0.1230803003
H  H10  1  0.82630000  0.00000000  0.22530000  1.0 0.1315532208
H  H11  1  0.57870000  0.00000000  0.31300000  1.0 0.1315532208
H  H12  1  0.48280000  0.00000000  0.17600000  1.0 0.1315532208
H  H13  1  0.27800000  0.00000000  0.91020000  1.0 0.1230803003
H  H14  1  0.17370000  0.00000000  0.77470000  1.0 0.1315532208
H  H15  1  0.42130000  0.00000000  0.68700000  1.0 0.1315532208
H  H16  1  0.51720000  0.00000000  0.82400000  1.0 0.1315532208
C  C1  1  0.94770000  0.83480000  0.74280000  1.0 -0.1718304396
C  C2  1  0.96780000  0.83810000  0.83010000  1.0 0.0776795417
C  C3  1  0.35700000  0.31190000  0.03170000  1.0 0.0509628735
C  C4  1  0.16190000  0.68710000  0.01990000  1.0 0.036834196
C  C5  1  0.05230000  0.83480000  0.25720000  1.0 -0.1718304396
C  C6  1  0.03220000  0.83810000  0.16990000  1.0 0.0776795417
C  C7  1  0.64300000  0.31190000  0.96830000  1.0 0.0509628735
C  C8  1  0.83810000  0.68710000  0.98010000  1.0 0.036834196
C  C9  1  0.05230000  0.16520000  0.25720000  1.0 -0.1718304396
C  C10  1  0.03220000  0.16190000  0.16990000  1.0 0.0776795417
C  C11  1  0.64300000  0.68810000  0.96830000  1.0 0.0509628735
C  C12  1  0.83810000  0.31290000  0.98010000  1.0 0.036834196
C  C13  1  0.94770000  0.16520000  0.74280000  1.0 -0.1718304396
C  C14  1  0.96780000  0.16190000  0.83010000  1.0 0.0776795417
C  C15  1  0.35700000  0.68810000  0.03170000  1.0 0.0509628735
C  C16  1  0.16190000  0.31290000  0.01990000  1.0 0.036834196
C  C17  1  0.69270000  0.00000000  0.13480000  1.0 0.0704260812
C  C18  1  0.75610000  0.00000000  0.21660000  1.0 -0.1836664483
C  C19  1  0.71560000  0.00000000  0.28510000  1.0 0.1562636763
C  C20  1  0.60970000  0.00000000  0.26890000  1.0 -0.1718304396
C  C21  1  0.55310000  0.00000000  0.18590000  1.0 0.0880248368
C  C22  1  0.77630000  0.00000000  0.37140000  1.0 -0.0778877951
C  C23  1  0.82150000  0.00000000  0.44430000  1.0 -0.026747022
C  C24  1  0.87060000  0.00000000  0.53100000  1.0 -0.0506672684
C  C25  1  0.90760000  0.00000000  0.60880000  1.0 -0.0778877951
C  C26  1  0.93540000  0.00000000  0.69670000  1.0 0.1445452392
C  C27  1  0.30730000  0.00000000  0.86520000  1.0 0.0704260812
C  C28  1  0.24390000  0.00000000  0.78340000  1.0 -0.1836664483
C  C29  1  0.28440000  0.00000000  0.71490000  1.0 0.1562636763
C  C30  1  0.39030000  0.00000000  0.73110000  1.0 -0.159230717
C  C31  1  0.44690000  0.00000000  0.81410000  1.0 0.0880248368
C  C32  1  0.22370000  0.00000000  0.62860000  1.0 -0.0778877951
C  C33  1  0.17850000  0.00000000  0.55570000  1.0 -0.026747022
C  C34  1  0.12940000  0.00000000  0.46900000  1.0 -0.0506672684
C  C35  1  0.09240000  0.00000000  0.39120000  1.0 -0.0778877951
C  C36  1  0.06460000  0.00000000  0.30330000  1.0 0.1453789592
N  N1  1  0.41390000  0.19440000  0.02620000  1.0 -0.3182978027
N  N2  1  0.10380000  0.80470000  0.01390000  1.0 -0.3182978027
N  N3  1  0.58610000  0.19440000  0.97380000  1.0 -0.3182978027
N  N4  1  0.89620000  0.80470000  0.98610000  1.0 -0.3182978027
N  N5  1  0.58610000  0.80560000  0.97380000  1.0 -0.3182978027
N  N6  1  0.89620000  0.19530000  0.98610000  1.0 -0.3182978027
N  N7  1  0.41390000  0.80560000  0.02620000  1.0 -0.3182978027
N  N8  1  0.10380000  0.19530000  0.01390000  1.0 -0.3182978027
N  N9  1  0.58940000  0.00000000  0.11720000  1.0 -0.159230717
N  N10  1  0.98220000  0.00000000  0.87430000  1.0 -0.1394615948
N  N11  1  0.41060000  0.00000000  0.88280000  1.0 -0.159230717
N  N12  1  0.01780000  0.00000000  0.12570000  1.0 -0.1394615948
