# DDEC6 charges by PACMAN v1.1 (https://github.com/mtap-research/PACMAN-charge/)
data_XUGROI_ASR_pacman
_symmetry_space_group_name_H-M   'P 1'
_cell_length_a   10.85950000
_cell_length_b   10.85950000
_cell_length_c   25.64300000
_cell_angle_alpha   87.19490000
_cell_angle_beta   92.80510000
_cell_angle_gamma   109.29300000
_symmetry_Int_Tables_number   1
_chemical_formula_structural   CuH9C17O4
_chemical_formula_sum   'Cu4 H36 C68 O16'
_cell_volume   2849.07740878
_cell_formula_units_Z   4
loop_
 _symmetry_equiv_pos_site_id
 _symmetry_equiv_pos_as_xyz
  1  'x, y, z'
loop_
 _atom_site_type_symbol
 _atom_site_label
 _atom_site_symmetry_multiplicity
 _atom_site_fract_x
 _atom_site_fract_y
 _atom_site_fract_z
 _atom_site_occupancy
 _atom_site_charge
Cu  Cu1  1  0.95321000  0.59699000  0.49673000  1.0 0.8632810229
Cu  Cu2  1  0.59699000  0.95321000  0.00327000  1.0 0.8632810229
Cu  Cu3  1  0.04679000  0.40301000  0.50327000  1.0 0.8632810229
Cu  Cu4  1  0.40301000  0.04679000  0.99673000  1.0 0.8632810229
H  H1  1  0.46010000  0.46470000  0.34140000  1.0 0.1368080789
H  H2  1  0.46470000  0.46010000  0.15860000  1.0 0.1368080789
H  H3  1  0.53990000  0.53530000  0.65860000  1.0 0.1368080789
H  H4  1  0.53530000  0.53990000  0.84140000  1.0 0.1368080789
H  H5  1  0.68920000  0.46560000  0.36680000  1.0 0.130078653
H  H6  1  0.46560000  0.68920000  0.13320000  1.0 0.130078653
H  H7  1  0.31080000  0.53440000  0.63320000  1.0 0.130078653
H  H8  1  0.53440000  0.31080000  0.86680000  1.0 0.130078653
H  H9  1  0.73100000  0.12000000  0.40900000  1.0 0.130078653
H  H10  1  0.12000000  0.73100000  0.09100000  1.0 0.130078653
H  H11  1  0.26900000  0.88000000  0.59100000  1.0 0.130078653
H  H12  1  0.88000000  0.26900000  0.90900000  1.0 0.130078653
H  H13  1  0.59800000  0.02000000  0.35500000  1.0 0.1232756639
H  H14  1  0.02000000  0.59800000  0.14500000  1.0 0.1232756639
H  H15  1  0.40200000  0.98000000  0.64500000  1.0 0.1232756639
H  H16  1  0.98000000  0.40200000  0.85500000  1.0 0.1232756639
H  H17  1  0.50900000  0.13640000  0.28310000  1.0 0.1114770269
H  H18  1  0.13640000  0.50900000  0.21690000  1.0 0.1114770269
H  H19  1  0.49100000  0.86360000  0.71690000  1.0 0.1114770269
H  H20  1  0.86360000  0.49100000  0.78310000  1.0 0.1114770269
H  H21  1  0.49650000  0.27090000  0.14130000  1.0 0.130078653
H  H22  1  0.27090000  0.49650000  0.35870000  1.0 0.130078653
H  H23  1  0.50350000  0.72910000  0.85870000  1.0 0.130078653
H  H24  1  0.72910000  0.50350000  0.64130000  1.0 0.130078653
H  H25  1  0.83000000  0.18540000  0.13150000  1.0 0.130078653
H  H26  1  0.18540000  0.83000000  0.36850000  1.0 0.130078653
H  H27  1  0.17000000  0.81460000  0.86850000  1.0 0.130078653
H  H28  1  0.81460000  0.17000000  0.63150000  1.0 0.130078653
H  H29  1  0.90720000  0.30340000  0.20280000  1.0 0.1232756639
H  H30  1  0.30340000  0.90720000  0.29720000  1.0 0.1232756639
H  H31  1  0.09280000  0.69660000  0.79720000  1.0 0.1232756639
H  H32  1  0.69660000  0.09280000  0.70280000  1.0 0.1232756639
H  H33  1  0.78070000  0.40110000  0.24650000  1.0 0.1114770269
H  H34  1  0.40110000  0.78070000  0.25350000  1.0 0.1114770269
H  H35  1  0.21930000  0.59890000  0.75350000  1.0 0.1114770269
H  H36  1  0.59890000  0.21930000  0.74650000  1.0 0.1114770269
C  C1  1  0.52810000  0.39650000  0.28200000  1.0 0.0296969618
C  C2  1  0.39650000  0.52810000  0.21800000  1.0 0.0296969618
C  C3  1  0.47190000  0.60350000  0.71800000  1.0 0.0296969618
C  C4  1  0.60350000  0.47190000  0.78200000  1.0 0.0296969618
C  C5  1  0.52840000  0.39400000  0.22560000  1.0 0.0486554319
C  C6  1  0.39400000  0.52840000  0.27440000  1.0 0.0486554319
C  C7  1  0.47160000  0.60600000  0.77440000  1.0 0.0486554319
C  C8  1  0.60600000  0.47160000  0.72560000  1.0 0.0486554319
C  C9  1  0.46080000  0.46320000  0.30510000  1.0 -0.1871857641
C  C10  1  0.46320000  0.46080000  0.19490000  1.0 -0.1871857641
C  C11  1  0.53920000  0.53680000  0.69490000  1.0 -0.1871857641
C  C12  1  0.53680000  0.53920000  0.80510000  1.0 -0.1871857641
C  C13  1  0.58620000  0.31300000  0.31790000  1.0 0.0868869928
C  C14  1  0.31300000  0.58620000  0.18210000  1.0 0.0868869928
C  C15  1  0.41380000  0.68700000  0.68210000  1.0 0.0868869928
C  C16  1  0.68700000  0.41380000  0.81790000  1.0 0.0868869928
C  C17  1  0.67380000  0.37780000  0.36110000  1.0 -0.1706819738
C  C18  1  0.37780000  0.67380000  0.13890000  1.0 -0.1706819738
C  C19  1  0.32620000  0.62220000  0.63890000  1.0 -0.1706819738
C  C20  1  0.62220000  0.32620000  0.86110000  1.0 -0.1706819738
C  C21  1  0.73250000  0.30630000  0.39270000  1.0 0.006708515
C  C22  1  0.30630000  0.73250000  0.10730000  1.0 0.006708515
C  C23  1  0.26750000  0.69370000  0.60730000  1.0 0.006708515
C  C24  1  0.69370000  0.26750000  0.89270000  1.0 0.006708515
C  C25  1  0.69610000  0.16870000  0.38560000  1.0 -0.1249408758
C  C26  1  0.16870000  0.69610000  0.11440000  1.0 -0.1264685726
C  C27  1  0.30390000  0.83130000  0.61440000  1.0 -0.1264685726
C  C28  1  0.83130000  0.30390000  0.88560000  1.0 -0.1264685726
C  C29  1  0.61500000  0.10640000  0.34740000  1.0 -0.0973539099
C  C30  1  0.10640000  0.61500000  0.15260000  1.0 -0.0973539099
C  C31  1  0.38500000  0.89360000  0.65260000  1.0 -0.0973539099
C  C32  1  0.89360000  0.38500000  0.84740000  1.0 -0.0973539099
C  C33  1  0.56090000  0.17770000  0.31120000  1.0 -0.1871857641
C  C34  1  0.17770000  0.56090000  0.18880000  1.0 -0.1871857641
C  C35  1  0.43910000  0.82230000  0.68880000  1.0 -0.1871857641
C  C36  1  0.82230000  0.43910000  0.81120000  1.0 -0.1871857641
C  C37  1  0.61730000  0.32630000  0.19890000  1.0 0.0759001637
C  C38  1  0.32630000  0.61730000  0.30110000  1.0 0.0759001637
C  C39  1  0.38270000  0.67370000  0.80110000  1.0 0.0759001637
C  C40  1  0.67370000  0.38270000  0.69890000  1.0 0.0759001637
C  C41  1  0.57750000  0.27210000  0.15550000  1.0 -0.1526493018
C  C42  1  0.27210000  0.57750000  0.34450000  1.0 -0.1526493018
C  C43  1  0.42250000  0.72790000  0.84450000  1.0 -0.1526493018
C  C44  1  0.72790000  0.42250000  0.65550000  1.0 -0.1526493018
C  C45  1  0.65300000  0.21300000  0.12770000  1.0 0.0296969618
C  C46  1  0.21300000  0.65300000  0.37230000  1.0 0.0296969618
C  C47  1  0.34700000  0.78700000  0.87230000  1.0 0.0296969618
C  C48  1  0.78700000  0.34700000  0.62770000  1.0 0.0296969618
C  C49  1  0.77860000  0.22460000  0.14770000  1.0 -0.1101295518
C  C50  1  0.22460000  0.77860000  0.35230000  1.0 -0.1101295518
C  C51  1  0.22140000  0.77540000  0.85230000  1.0 -0.1101295518
C  C52  1  0.77540000  0.22140000  0.64770000  1.0 -0.1101295518
C  C53  1  0.82260000  0.29300000  0.19040000  1.0 -0.0973539099
C  C54  1  0.29300000  0.82260000  0.30960000  1.0 -0.0973539099
C  C55  1  0.17740000  0.70700000  0.80960000  1.0 -0.0973539099
C  C56  1  0.70700000  0.17740000  0.69040000  1.0 -0.0973539099
C  C57  1  0.74690000  0.35030000  0.21770000  1.0 -0.1706819738
C  C58  1  0.35030000  0.74690000  0.28230000  1.0 -0.1706819738
C  C59  1  0.25310000  0.64970000  0.78230000  1.0 -0.1706819738
C  C60  1  0.64970000  0.25310000  0.71770000  1.0 -0.1706819738
C  C61  1  0.82950000  0.37530000  0.43520000  1.0 0.5767714793
C  C62  1  0.37530000  0.82950000  0.06480000  1.0 0.5767714793
C  C63  1  0.17050000  0.62470000  0.56480000  1.0 0.5767714793
C  C64  1  0.62470000  0.17050000  0.93520000  1.0 0.5767714793
C  C65  1  0.60020000  0.13720000  0.07550000  1.0 0.570635792
C  C66  1  0.13720000  0.60020000  0.42450000  1.0 0.570635792
C  C67  1  0.39980000  0.86280000  0.92450000  1.0 0.570635792
C  C68  1  0.86280000  0.39980000  0.57550000  1.0 0.570635792
O  O1  1  0.81950000  0.49030000  0.44860000  1.0 -0.5650687998
O  O2  1  0.49030000  0.81950000  0.05140000  1.0 -0.56358528
O  O3  1  0.18050000  0.50970000  0.55140000  1.0 -0.56358528
O  O4  1  0.50970000  0.18050000  0.94860000  1.0 -0.56358528
O  O5  1  0.90370000  0.31550000  0.45380000  1.0 -0.4987772962
O  O6  1  0.31550000  0.90370000  0.04620000  1.0 -0.4987772962
O  O7  1  0.09630000  0.68450000  0.54620000  1.0 -0.4987772962
O  O8  1  0.68450000  0.09630000  0.95380000  1.0 -0.4987772962
O  O9  1  0.49410000  0.15130000  0.05720000  1.0 -0.5290365404
O  O10  1  0.15130000  0.49410000  0.44280000  1.0 -0.5290365404
O  O11  1  0.50590000  0.84870000  0.94280000  1.0 -0.5290365404
O  O12  1  0.84870000  0.50590000  0.55720000  1.0 -0.5290365404
O  O13  1  0.66680000  0.06760000  0.06170000  1.0 -0.5237825996
O  O14  1  0.06760000  0.66680000  0.43830000  1.0 -0.5237825996
O  O15  1  0.33320000  0.93240000  0.93830000  1.0 -0.5237825996
O  O16  1  0.93240000  0.33320000  0.56170000  1.0 -0.5237825996
