# DDEC6 charges by PACMAN v1.1 (https://github.com/mtap-research/PACMAN-charge/)
data_XUGSEY_ASR_pacman
_symmetry_space_group_name_H-M   'P 1'
_cell_length_a   11.56900000
_cell_length_b   15.44700000
_cell_length_c   21.19000000
_cell_angle_alpha   103.20600000
_cell_angle_beta   100.97500000
_cell_angle_gamma   89.61500000
_symmetry_Int_Tables_number   1
_chemical_formula_structural   Zn3H34C80N6(O4F5)2
_chemical_formula_sum   'Zn3 H34 C80 N6 O8 F10'
_cell_volume   3616.53832059
_cell_formula_units_Z   1
loop_
 _symmetry_equiv_pos_site_id
 _symmetry_equiv_pos_as_xyz
  1  'x, y, z'
loop_
 _atom_site_type_symbol
 _atom_site_label
 _atom_site_symmetry_multiplicity
 _atom_site_fract_x
 _atom_site_fract_y
 _atom_site_fract_z
 _atom_site_occupancy
 _atom_site_charge
Zn  Zn1  1  0.96485000  0.47913000  0.42734000  1.0 0.8326342632
Zn  Zn2  1  0.03515000  0.52087000  0.57266000  1.0 0.8326342632
Zn  Zn3  1  0.50000000  0.50000000  0.00000000  1.0 0.6157046487
H  H1  1  0.31120000  0.34830000  0.56230000  1.0 0.1203580644
H  H2  1  0.68880000  0.65170000  0.43770000  1.0 0.1203580644
H  H3  1  0.43480000  0.22940000  0.56940000  1.0 0.1149461572
H  H4  1  0.56520000  0.77060000  0.43060000  1.0 0.1149461572
H  H5  1  0.26510000  0.09790000  0.38910000  1.0 0.1203580644
H  H6  1  0.73490000  0.90210000  0.61090000  1.0 0.1203580644
H  H7  1  0.15170000  0.21780000  0.37870000  1.0 0.1289936681
H  H8  1  0.84830000  0.78220000  0.62130000  1.0 0.1289936681
H  H9  1  0.29670000  0.98690000  0.46600000  1.0 0.1203580644
H  H10  1  0.70330000  0.01310000  0.53400000  1.0 0.1203580644
H  H11  1  0.55510000  0.17600000  0.41740000  1.0 0.1203580644
H  H12  1  0.44490000  0.82400000  0.58260000  1.0 0.1203580644
H  H13  1  0.67640000  0.29500000  0.41560000  1.0 0.1203580644
H  H14  1  0.32360000  0.70500000  0.58440000  1.0 0.1203580644
H  H15  1  0.83240000  0.30540000  0.60450000  1.0 0.1203580644
H  H16  1  0.16760000  0.69460000  0.39550000  1.0 0.1203580644
H  H17  1  0.71880000  0.18060000  0.60370000  1.0 0.1203580644
H  H18  1  0.28120000  0.81940000  0.39630000  1.0 0.1203580644
H  H19  1  0.72290000  0.46070000  0.35460000  1.0 0.1203580644
H  H20  1  0.27710000  0.53930000  0.64540000  1.0 0.1203580644
H  H21  1  0.61440000  0.46040000  0.25520000  1.0 0.1415270963
H  H22  1  0.38560000  0.53960000  0.74480000  1.0 0.1415270963
H  H23  1  0.91030000  0.52300000  0.19950000  1.0 0.1415270963
H  H24  1  0.08970000  0.47700000  0.80050000  1.0 0.1415270963
H  H25  1  0.00590000  0.52410000  0.30520000  1.0 0.1203580644
H  H26  1  0.99410000  0.47590000  0.69480000  1.0 0.1203580644
H  H27  1  0.69760000  0.31690000  0.16160000  1.0 0.1289936681
H  H28  1  0.30240000  0.68310000  0.83840000  1.0 0.1289936681
H  H29  1  0.59090000  0.20710000  0.06850000  1.0 0.1289936681
H  H30  1  0.40910000  0.79290000  0.93150000  1.0 0.1289936681
H  H31  1  0.24760000  0.23220000  0.86260000  1.0 0.1415270963
H  H32  1  0.75240000  0.76780000  0.13740000  1.0 0.1415270963
H  H33  1  0.25870000  0.33150000  0.77870000  1.0 0.1289936681
H  H34  1  0.74130000  0.66850000  0.22130000  1.0 0.1289936681
C  C1  1  0.13450000  0.36940000  0.46940000  1.0 0.5796741178
C  C2  1  0.86550000  0.63060000  0.53060000  1.0 0.5796741178
C  C3  1  0.21820000  0.29480000  0.47110000  1.0 -0.0240081153
C  C4  1  0.78180000  0.70520000  0.52890000  1.0 -0.0240081153
C  C5  1  0.30270000  0.29740000  0.52650000  1.0 -0.0962741389
C  C6  1  0.69730000  0.70260000  0.47350000  1.0 -0.0962741389
C  C7  1  0.37600000  0.22660000  0.53100000  1.0 -0.1506889533
C  C8  1  0.62400000  0.77340000  0.46900000  1.0 -0.1506889533
C  C9  1  0.36310000  0.15180000  0.47940000  1.0 0.0733819702
C  C10  1  0.63690000  0.84820000  0.52060000  1.0 0.0733819702
C  C11  1  0.27640000  0.14980000  0.42400000  1.0 -0.1506889533
C  C12  1  0.72360000  0.85020000  0.57600000  1.0 -0.1506889533
C  C13  1  0.20730000  0.21960000  0.41830000  1.0 -0.0928100417
C  C14  1  0.79270000  0.78040000  0.58170000  1.0 -0.0928100417
C  C15  1  0.43530000  0.07400000  0.48720000  1.0 0.0273116993
C  C16  1  0.56470000  0.92600000  0.51280000  1.0 0.0273116993
C  C17  1  0.37980000  0.99260000  0.48030000  1.0 -0.1921515982
C  C18  1  0.62020000  0.00740000  0.51970000  1.0 -0.1921515982
C  C19  1  0.56000000  0.08160000  0.50670000  1.0 0.0273116993
C  C20  1  0.44000000  0.91840000  0.49330000  1.0 0.0273116993
C  C21  1  0.62700000  0.16430000  0.50970000  1.0 0.0733819702
C  C22  1  0.37300000  0.83570000  0.49030000  1.0 0.0733819702
C  C23  1  0.61390000  0.20050000  0.45510000  1.0 -0.1506889533
C  C24  1  0.38610000  0.79950000  0.54490000  1.0 -0.1506889533
C  C25  1  0.68490000  0.27230000  0.45420000  1.0 -0.0928100417
C  C26  1  0.31510000  0.72770000  0.54580000  1.0 -0.0928100417
C  C27  1  0.76770000  0.31050000  0.50940000  1.0 -0.0326414979
C  C28  1  0.23230000  0.68950000  0.49060000  1.0 -0.0326414979
C  C29  1  0.77820000  0.27760000  0.56560000  1.0 -0.0962741389
C  C30  1  0.22180000  0.72240000  0.43440000  1.0 -0.0962741389
C  C31  1  0.70930000  0.20400000  0.56530000  1.0 -0.1506889533
C  C32  1  0.29070000  0.79600000  0.43470000  1.0 -0.1506889533
C  C33  1  0.84850000  0.38460000  0.50700000  1.0 0.5888737966
C  C34  1  0.15150000  0.61540000  0.49300000  1.0 0.5888737966
C  C35  1  0.76200000  0.47100000  0.32130000  1.0 0.0525876857
C  C36  1  0.23800000  0.52900000  0.67870000  1.0 0.0525876857
C  C37  1  0.69700000  0.47220000  0.26310000  1.0 -0.1921515982
C  C38  1  0.30300000  0.52780000  0.73690000  1.0 -0.1921515982
C  C39  1  0.74780000  0.49010000  0.21420000  1.0 0.1289936681
C  C40  1  0.25220000  0.50990000  0.78580000  1.0 0.1289936681
C  C41  1  0.86840000  0.50900000  0.23050000  1.0 -0.2089642281
C  C42  1  0.13160000  0.49100000  0.76950000  1.0 -0.2089642281
C  C43  1  0.92470000  0.50660000  0.29310000  1.0 0.0889826776
C  C44  1  0.07530000  0.49340000  0.70690000  1.0 0.0889826776
C  C45  1  0.67640000  0.49200000  0.14650000  1.0 -0.0732353362
C  C46  1  0.32360000  0.50800000  0.85350000  1.0 -0.0732353362
C  C47  1  0.63070000  0.41610000  0.10800000  1.0 0.1289936681
C  C48  1  0.36930000  0.58390000  0.89200000  1.0 0.1289936681
C  C49  1  0.65170000  0.32950000  0.12280000  1.0 -0.1992975692
C  C50  1  0.34830000  0.67050000  0.87720000  1.0 -0.1992975692
C  C51  1  0.59400000  0.27260000  0.07150000  1.0 -0.0833167479
C  C52  1  0.40600000  0.72740000  0.92850000  1.0 -0.0833167479
C  C53  1  0.48500000  0.32450000  0.03770000  1.0 0.0273116993
C  C54  1  0.51500000  0.67550000  0.96230000  1.0 0.0273116993
C  C55  1  0.40300000  0.28740000  0.98340000  1.0 0.0028911743
C  C56  1  0.59700000  0.71260000  0.01660000  1.0 0.0028911743
C  C57  1  0.33040000  0.20280000  0.98500000  1.0 -0.122403055
C  C58  1  0.66960000  0.79720000  0.01500000  1.0 -0.1272277455
C  C59  1  0.22870000  0.19020000  0.00820000  1.0 0.1415270963
C  C60  1  0.77130000  0.80980000  0.99180000  1.0 0.1415270963
C  C61  1  0.18730000  0.10460000  0.00460000  1.0 0.0525876857
C  C62  1  0.81270000  0.89540000  0.99540000  1.0 0.0525876857
C  C63  1  0.24770000  0.03150000  0.97780000  1.0 0.0889826776
C  C64  1  0.75230000  0.96850000  0.02220000  1.0 0.0889826776
C  C65  1  0.34940000  0.04410000  0.95450000  1.0 0.0814691042
C  C66  1  0.65060000  0.95590000  0.04550000  1.0 0.0814691042
C  C67  1  0.39080000  0.12970000  0.95820000  1.0 0.1289936681
C  C68  1  0.60920000  0.87030000  0.04180000  1.0 0.1289936681
C  C69  1  0.40100000  0.32230000  0.91970000  1.0 0.2082014312
C  C70  1  0.59900000  0.67770000  0.08030000  1.0 0.2082014312
C  C71  1  0.29600000  0.28350000  0.86670000  1.0 -0.2089642281
C  C72  1  0.70400000  0.71650000  0.13330000  1.0 -0.2089642281
C  C73  1  0.28700000  0.34300000  0.82500000  1.0 -0.1921515982
C  C74  1  0.71300000  0.65700000  0.17500000  1.0 -0.1921515982
C  C75  1  0.66610000  0.57340000  0.12990000  1.0 0.1688791742
C  C76  1  0.33390000  0.42660000  0.87010000  1.0 0.1688791742
C  C77  1  0.42200000  0.68780000  0.98950000  1.0 0.0552239646
C  C78  1  0.57800000  0.31220000  0.01050000  1.0 0.0552239646
C  C79  1  0.48500000  0.72860000  0.05200000  1.0 -0.0036584616
C  C80  1  0.51500000  0.27140000  0.94800000  1.0 -0.0092363167
N  N1  1  0.87760000  0.48320000  0.33630000  1.0 -0.2089642281
N  N2  1  0.12240000  0.51680000  0.66370000  1.0 -0.2089642281
N  N3  1  0.55480000  0.40450000  0.04720000  1.0 -0.2330931197
N  N4  1  0.44520000  0.59550000  0.95280000  1.0 -0.2330931197
N  N5  1  0.40340000  0.40970000  0.92620000  1.0 -0.3519395361
N  N6  1  0.59660000  0.59030000  0.07380000  1.0 -0.3519395361
O  O1  1  0.07800000  0.37790000  0.41520000  1.0 -0.5161129902
O  O2  1  0.92200000  0.62210000  0.58480000  1.0 -0.5161129902
O  O3  1  0.12680000  0.41910000  0.52470000  1.0 -0.5782122682
O  O4  1  0.87320000  0.58090000  0.47530000  1.0 -0.5782122682
O  O5  1  0.90510000  0.42840000  0.56141000  1.0 -0.5411543618
O  O6  1  0.09490000  0.57160000  0.43859000  1.0 -0.5411543618
O  O7  1  0.85430000  0.39620000  0.45177000  1.0 -0.5285098622
O  O8  1  0.14570000  0.60380000  0.54823000  1.0 -0.5285098622
F  F1  1  0.16940000  0.26190000  0.03460000  1.0 -0.1272277455
F  F2  1  0.83060000  0.73810000  0.96540000  1.0 -0.122403055
F  F3  1  0.08430000  0.09180000  0.02810000  1.0 -0.0833167479
F  F4  1  0.91570000  0.90820000  0.97190000  1.0 -0.0833167479
F  F5  1  0.20620000  0.94560000  0.97410000  1.0 -0.122403055
F  F6  1  0.79380000  0.05440000  0.02590000  1.0 -0.122403055
F  F7  1  0.41010000  0.97060000  0.92760000  1.0 -0.1138641159
F  F8  1  0.58990000  0.02940000  0.07240000  1.0 -0.1138641159
F  F9  1  0.49310000  0.14230000  0.93480000  1.0 -0.0833167479
F  F10  1  0.50690000  0.85770000  0.06520000  1.0 -0.0833167479
