# DDEC6 charges by PACMAN v1.1 (https://github.com/mtap-research/PACMAN-charge/)
data_XUGSID_ASR_pacman
_symmetry_space_group_name_H-M   'P 1'
_cell_length_a   11.50410000
_cell_length_b   11.50410000
_cell_length_c   16.76400000
_cell_angle_alpha   77.31160000
_cell_angle_beta   102.68800000
_cell_angle_gamma   71.40480000
_symmetry_Int_Tables_number   1
_chemical_formula_structural   CoH13C18(NO)4
_chemical_formula_sum   'Co4 H52 C72 N16 O16'
_cell_volume   1948.17004209
_cell_formula_units_Z   4
loop_
 _symmetry_equiv_pos_site_id
 _symmetry_equiv_pos_as_xyz
  1  'x, y, z'
loop_
 _atom_site_type_symbol
 _atom_site_label
 _atom_site_symmetry_multiplicity
 _atom_site_fract_x
 _atom_site_fract_y
 _atom_site_fract_z
 _atom_site_occupancy
 _atom_site_charge
Co  Co1  1  0.50000000  0.50000000  0.50000000  1.0 0.6434875917
Co  Co2  1  0.50000000  0.50000000  0.00000000  1.0 0.6451056194
Co  Co3  1  0.92814000  0.92814000  0.75000000  1.0 0.8261340153
Co  Co4  1  0.07186000  0.07186000  0.25000000  1.0 0.8261340153
H  H1  1  0.07780000  0.80240000  0.04960000  1.0 0.309946556
H  H2  1  0.80240000  0.07780000  0.45040000  1.0 0.309946556
H  H3  1  0.92220000  0.19760000  0.95040000  1.0 0.309946556
H  H4  1  0.19760000  0.92220000  0.54960000  1.0 0.309946556
H  H5  1  0.37460000  0.20360000  0.40480000  1.0 0.1199486893
H  H6  1  0.20360000  0.37460000  0.09520000  1.0 0.1199486893
H  H7  1  0.62540000  0.79640000  0.59520000  1.0 0.1199486893
H  H8  1  0.79640000  0.62540000  0.90480000  1.0 0.1199486893
H  H9  1  0.38780000  0.75660000  0.33890000  1.0 0.130603611
H  H10  1  0.75660000  0.38780000  0.16110000  1.0 0.130603611
H  H11  1  0.61220000  0.24340000  0.66110000  1.0 0.130603611
H  H12  1  0.24340000  0.61220000  0.83890000  1.0 0.130603611
H  H13  1  0.30440000  0.45780000  0.34250000  1.0 0.130603611
H  H14  1  0.45780000  0.30440000  0.15750000  1.0 0.130603611
H  H15  1  0.69560000  0.54220000  0.65750000  1.0 0.130603611
H  H16  1  0.54220000  0.69560000  0.84250000  1.0 0.130603611
H  H17  1  0.19210000  0.61170000  0.19830000  1.0 0.130603611
H  H18  1  0.61170000  0.19210000  0.30170000  1.0 0.130603611
H  H19  1  0.80790000  0.38830000  0.80170000  1.0 0.130603611
H  H20  1  0.38830000  0.80790000  0.69830000  1.0 0.130603611
H  H21  1  0.28000000  0.90240000  0.18820000  1.0 0.157207754
H  H22  1  0.90240000  0.28000000  0.31180000  1.0 0.157207754
H  H23  1  0.72000000  0.09760000  0.81180000  1.0 0.157207754
H  H24  1  0.09760000  0.72000000  0.68820000  1.0 0.157207754
H  H25  1  0.28590000  0.82750000  0.12040000  1.0 0.146854442
H  H26  1  0.82750000  0.28590000  0.37960000  1.0 0.146854442
H  H27  1  0.71410000  0.17250000  0.87960000  1.0 0.146854442
H  H28  1  0.17250000  0.71410000  0.62040000  1.0 0.146854442
H  H29  1  0.78360000  0.08800000  0.17520000  1.0 0.130603611
H  H30  1  0.08800000  0.78360000  0.32480000  1.0 0.130603611
H  H31  1  0.21640000  0.91200000  0.82480000  1.0 0.130603611
H  H32  1  0.91200000  0.21640000  0.67520000  1.0 0.130603611
H  H33  1  0.60300000  0.07240000  0.09500000  1.0 0.1064553377
H  H34  1  0.07240000  0.60300000  0.40500000  1.0 0.1064553377
H  H35  1  0.39700000  0.92760000  0.90500000  1.0 0.1064553377
H  H36  1  0.92760000  0.39700000  0.59500000  1.0 0.1064553377
H  H37  1  0.61560000  0.95300000  0.00140000  1.0 0.1064553377
H  H38  1  0.95300000  0.61560000  0.49860000  1.0 0.1064553377
H  H39  1  0.38440000  0.04700000  0.99860000  1.0 0.1064553377
H  H40  1  0.04700000  0.38440000  0.50140000  1.0 0.1064553377
H  H41  1  0.81220000  0.84680000  0.98310000  1.0 0.1385554489
H  H42  1  0.84680000  0.81220000  0.51690000  1.0 0.1385554489
H  H43  1  0.18780000  0.15320000  0.01690000  1.0 0.1385554489
H  H44  1  0.15320000  0.18780000  0.48310000  1.0 0.1385554489
H  H45  1  0.44170000  0.42150000  0.31870000  1.0 0.0945374635
H  H46  1  0.42150000  0.44170000  0.18130000  1.0 0.0945374635
H  H47  1  0.55830000  0.57850000  0.68130000  1.0 0.0945374635
H  H48  1  0.57850000  0.55830000  0.81870000  1.0 0.0945374635
H  H49  1  0.36240000  0.57680000  0.17430000  1.0 0.1048240703
H  H50  1  0.57680000  0.36240000  0.32570000  1.0 0.1048240703
H  H51  1  0.63760000  0.42320000  0.82570000  1.0 0.1048240703
H  H52  1  0.42320000  0.63760000  0.67430000  1.0 0.1048240703
C  C1  1  0.57963000  0.21703000  0.49729000  1.0 0.549609099
C  C2  1  0.21703000  0.57963000  0.00271000  1.0 0.549609099
C  C3  1  0.42037000  0.78297000  0.50271000  1.0 0.549609099
C  C4  1  0.78297000  0.42037000  0.99729000  1.0 0.549609099
C  C5  1  0.73750000  0.95190000  0.63104000  1.0 0.549609099
C  C6  1  0.95190000  0.73750000  0.86896000  1.0 0.549609099
C  C7  1  0.26250000  0.04810000  0.36896000  1.0 0.549609099
C  C8  1  0.04810000  0.26250000  0.13104000  1.0 0.549609099
C  C9  1  0.61568000  0.97908000  0.56154000  1.0 -0.0219223737
C  C10  1  0.97908000  0.61568000  0.93846000  1.0 -0.0219223737
C  C11  1  0.38432000  0.02092000  0.43846000  1.0 -0.0219223737
C  C12  1  0.02092000  0.38432000  0.06154000  1.0 -0.0219223737
C  C13  1  0.54011000  0.10231000  0.50216000  1.0 -0.0305507256
C  C14  1  0.10231000  0.54011000  0.99784000  1.0 -0.0305507256
C  C15  1  0.45989000  0.89769000  0.49784000  1.0 -0.0305507256
C  C16  1  0.89769000  0.45989000  0.00216000  1.0 -0.0305507256
C  C17  1  0.42555000  0.12115000  0.44288000  1.0 -0.143811598
C  C18  1  0.12115000  0.42555000  0.05712000  1.0 -0.143811598
C  C19  1  0.57445000  0.87885000  0.55712000  1.0 -0.143811598
C  C20  1  0.87885000  0.57445000  0.94288000  1.0 -0.143811598
C  C21  1  0.36760000  0.69460000  0.31820000  1.0 0.0191613943
C  C22  1  0.69460000  0.36760000  0.18180000  1.0 0.0191613943
C  C23  1  0.63240000  0.30540000  0.68180000  1.0 0.0191613943
C  C24  1  0.30540000  0.63240000  0.81820000  1.0 0.0191613943
C  C25  1  0.31620000  0.53360000  0.32120000  1.0 -0.0305507256
C  C26  1  0.53360000  0.31620000  0.17880000  1.0 -0.0305507256
C  C27  1  0.68380000  0.46640000  0.67880000  1.0 -0.0305507256
C  C28  1  0.46640000  0.68380000  0.82120000  1.0 -0.0305507256
C  C29  1  0.25440000  0.61720000  0.24160000  1.0 -0.0709059495
C  C30  1  0.61720000  0.25440000  0.25840000  1.0 -0.0709059495
C  C31  1  0.74560000  0.38280000  0.75840000  1.0 -0.0709059495
C  C32  1  0.38280000  0.74560000  0.74160000  1.0 -0.0709059495
C  C33  1  0.25276000  0.83976000  0.16770000  1.0 -0.2341898191
C  C34  1  0.83976000  0.25276000  0.33230000  1.0 -0.235543679
C  C35  1  0.74724000  0.16024000  0.83230000  1.0 -0.235543679
C  C36  1  0.16024000  0.74724000  0.66770000  1.0 -0.235543679
C  C37  1  0.10976000  0.88976000  0.13665000  1.0 0.3384393347
C  C38  1  0.88976000  0.10976000  0.36335000  1.0 0.3384393347
C  C39  1  0.89024000  0.11024000  0.86335000  1.0 0.3384393347
C  C40  1  0.11024000  0.89024000  0.63665000  1.0 0.3384393347
C  C41  1  0.90766000  0.97686000  0.12780000  1.0 0.146854442
C  C42  1  0.97686000  0.90766000  0.37220000  1.0 0.146854442
C  C43  1  0.09234000  0.02314000  0.87220000  1.0 0.146854442
C  C44  1  0.02314000  0.09234000  0.62780000  1.0 0.146854442
C  C45  1  0.78990000  0.03990000  0.13720000  1.0 -0.1567620891
C  C46  1  0.03990000  0.78990000  0.36280000  1.0 -0.1567620891
C  C47  1  0.21010000  0.96010000  0.86280000  1.0 -0.1567620891
C  C48  1  0.96010000  0.21010000  0.63720000  1.0 -0.1567620891
C  C49  1  0.68300000  0.03000000  0.08940000  1.0 -0.1121695056
C  C50  1  0.03000000  0.68300000  0.41060000  1.0 -0.1121695056
C  C51  1  0.31700000  0.97000000  0.91060000  1.0 -0.1121695056
C  C52  1  0.97000000  0.31700000  0.58940000  1.0 -0.1121695056
C  C53  1  0.69040000  0.95800000  0.03260000  1.0 -0.1121695056
C  C54  1  0.95800000  0.69040000  0.46740000  1.0 -0.1121695056
C  C55  1  0.30960000  0.04200000  0.96740000  1.0 -0.1121695056
C  C56  1  0.04200000  0.30960000  0.53260000  1.0 -0.1121695056
C  C57  1  0.80680000  0.89400000  0.02160000  1.0 -0.1735086102
C  C58  1  0.89400000  0.80680000  0.47840000  1.0 -0.1735086102
C  C59  1  0.19320000  0.10600000  0.97840000  1.0 -0.1735086102
C  C60  1  0.10600000  0.19320000  0.52160000  1.0 -0.1735086102
C  C61  1  0.91484000  0.90364000  0.07090000  1.0 0.1385554489
C  C62  1  0.90364000  0.91484000  0.42910000  1.0 0.1385554489
C  C63  1  0.08516000  0.09636000  0.92910000  1.0 0.1385554489
C  C64  1  0.09636000  0.08516000  0.57090000  1.0 0.1385554489
C  C65  1  0.40880000  0.51100000  0.30560000  1.0 -0.0071481588
C  C66  1  0.51100000  0.40880000  0.19440000  1.0 -0.0071481588
C  C67  1  0.59120000  0.48900000  0.69440000  1.0 -0.0071481588
C  C68  1  0.48900000  0.59120000  0.80560000  1.0 -0.0071481588
C  C69  1  0.35980000  0.59520000  0.22530000  1.0 -0.0937941927
C  C70  1  0.59520000  0.35980000  0.27470000  1.0 -0.0937941927
C  C71  1  0.64020000  0.40480000  0.77470000  1.0 -0.0937941927
C  C72  1  0.40480000  0.64020000  0.72530000  1.0 -0.0937941927
N  N1  1  0.39848000  0.57768000  0.36729000  1.0 -0.235543679
N  N2  1  0.57768000  0.39848000  0.13271000  1.0 -0.235543679
N  N3  1  0.60152000  0.42232000  0.63271000  1.0 -0.235543679
N  N4  1  0.42232000  0.60152000  0.86729000  1.0 -0.235543679
N  N5  1  0.30557000  0.71777000  0.23700000  1.0 0.0748289492
N  N6  1  0.71777000  0.30557000  0.26300000  1.0 0.0748289492
N  N7  1  0.69443000  0.28223000  0.76300000  1.0 0.0748289492
N  N8  1  0.28223000  0.69443000  0.73700000  1.0 0.0748289492
N  N9  1  0.03169000  0.96629000  0.16877000  1.0 -0.43744434
N  N10  1  0.96629000  0.03169000  0.33123000  1.0 -0.43744434
N  N11  1  0.96831000  0.03371000  0.83123000  1.0 -0.43744434
N  N12  1  0.03371000  0.96831000  0.66877000  1.0 -0.43744434
N  N13  1  0.04484000  0.85104000  0.07778000  1.0 -0.3061114657
N  N14  1  0.85104000  0.04484000  0.42222000  1.0 -0.3061114657
N  N15  1  0.95516000  0.14896000  0.92222000  1.0 -0.3061114657
N  N16  1  0.14896000  0.95516000  0.57778000  1.0 -0.3061114657
O  O1  1  0.49825000  0.31563000  0.50164000  1.0 -0.5670408416
O  O2  1  0.31563000  0.49825000  0.99836000  1.0 -0.5670408416
O  O3  1  0.50175000  0.68437000  0.49836000  1.0 -0.5670408416
O  O4  1  0.68437000  0.50175000  0.00164000  1.0 -0.5670408416
O  O5  1  0.68641000  0.20549000  0.48620000  1.0 -0.5606475878
O  O6  1  0.20549000  0.68641000  0.01380000  1.0 -0.5606475878
O  O7  1  0.31359000  0.79451000  0.51380000  1.0 -0.5606475878
O  O8  1  0.79451000  0.31359000  0.98620000  1.0 -0.5606475878
O  O9  1  0.74211000  0.03489000  0.66814000  1.0 -0.5265623141
O  O10  1  0.03489000  0.74211000  0.83186000  1.0 -0.5265623141
O  O11  1  0.25789000  0.96511000  0.33186000  1.0 -0.5265623141
O  O12  1  0.96511000  0.25789000  0.16814000  1.0 -0.5265623141
O  O13  1  0.82994000  0.84658000  0.65262000  1.0 -0.537623744
O  O14  1  0.84658000  0.82994000  0.84738000  1.0 -0.537623744
O  O15  1  0.17006000  0.15342000  0.34738000  1.0 -0.537623744
O  O16  1  0.15342000  0.17006000  0.15262000  1.0 -0.537623744
