# DDEC6 charges by PACMAN v1.1 (https://github.com/mtap-research/PACMAN-charge/)
data_XUJNEY_ASR_pacman
_symmetry_space_group_name_H-M   'P 1'
_cell_length_a   17.85470000
_cell_length_b   17.85470000
_cell_length_c   38.67400000
_cell_angle_alpha   89.28260000
_cell_angle_beta   90.71740000
_cell_angle_gamma   110.34500000
_symmetry_Int_Tables_number   1
_chemical_formula_structural   CuBH16C52(NF4)4
_chemical_formula_sum   'Cu4 B4 H64 C208 N16 F64'
_cell_volume   11558.42789423
_cell_formula_units_Z   4
loop_
 _symmetry_equiv_pos_site_id
 _symmetry_equiv_pos_as_xyz
  1  'x, y, z'
loop_
 _atom_site_type_symbol
 _atom_site_label
 _atom_site_symmetry_multiplicity
 _atom_site_fract_x
 _atom_site_fract_y
 _atom_site_fract_z
 _atom_site_occupancy
 _atom_site_charge
Cu  Cu1  1  0.39107000  0.21353000  0.92289000  1.0 0.2098250659
Cu  Cu2  1  0.78647000  0.60893000  0.42289000  1.0 0.199176487
Cu  Cu3  1  0.21353000  0.39107000  0.57711000  1.0 0.199176487
Cu  Cu4  1  0.60893000  0.78647000  0.07711000  1.0 0.199176487
B  B1  1  0.85720000  0.13100000  0.67280000  1.0 0.3966077732
B  B2  1  0.86900000  0.14280000  0.17280000  1.0 0.3966077732
B  B3  1  0.13100000  0.85720000  0.82720000  1.0 0.3966077732
B  B4  1  0.14280000  0.86900000  0.32720000  1.0 0.3966077732
H  H1  1  0.55510000  0.27850000  0.89620000  1.0 0.1003612688
H  H2  1  0.63310000  0.25490000  0.84960000  1.0 0.1475625167
H  H3  1  0.43570000  0.07190000  0.81870000  1.0 0.1475625167
H  H4  1  0.36110000  0.10610000  0.86280000  1.0 0.1003612688
H  H5  1  0.37890000  0.32110000  0.86200000  1.0 0.1003612688
H  H6  1  0.28830000  0.31650000  0.81780000  1.0 0.1475625167
H  H7  1  0.13320000  0.11160000  0.85770000  1.0 0.1475625167
H  H8  1  0.22530000  0.12210000  0.90530000  1.0 0.1003612688
H  H9  1  0.71700000  0.52340000  0.48880000  1.0 0.0928479673
H  H10  1  0.74790000  0.43470000  0.52730000  1.0 0.1475625167
H  H11  1  0.95600000  0.45800000  0.47400000  1.0 0.1303029152
H  H12  1  0.91240000  0.54200000  0.43400000  1.0 0.1003612688
H  H13  1  0.68750000  0.69210000  0.45210000  1.0 0.1003612688
H  H14  1  0.68690000  0.77470000  0.49850000  1.0 0.140472017
H  H15  1  0.90170000  0.76430000  0.52790000  1.0 0.140472017
H  H16  1  0.89600000  0.67900000  0.48180000  1.0 0.1003612688
H  H17  1  0.72150000  0.44490000  0.39620000  1.0 0.1003612688
H  H18  1  0.74510000  0.36690000  0.34960000  1.0 0.1475625167
H  H19  1  0.92810000  0.56430000  0.31870000  1.0 0.1475625167
H  H20  1  0.89390000  0.63890000  0.36280000  1.0 0.1003612688
H  H21  1  0.67890000  0.62110000  0.36200000  1.0 0.1003612688
H  H22  1  0.68350000  0.71170000  0.31780000  1.0 0.1475625167
H  H23  1  0.88840000  0.86680000  0.35770000  1.0 0.1475625167
H  H24  1  0.87790000  0.77470000  0.40530000  1.0 0.1003612688
H  H25  1  0.47660000  0.28300000  0.98880000  1.0 0.0928479673
H  H26  1  0.56530000  0.25210000  0.02730000  1.0 0.1475625167
H  H27  1  0.54200000  0.04400000  0.97400000  1.0 0.1303029152
H  H28  1  0.45800000  0.08760000  0.93400000  1.0 0.1003612688
H  H29  1  0.30790000  0.31250000  0.95210000  1.0 0.1003612688
H  H30  1  0.22530000  0.31310000  0.99850000  1.0 0.140472017
H  H31  1  0.23570000  0.09830000  0.02790000  1.0 0.140472017
H  H32  1  0.32100000  0.10400000  0.98180000  1.0 0.1003612688
H  H33  1  0.27850000  0.55510000  0.60380000  1.0 0.1003612688
H  H34  1  0.25490000  0.63310000  0.65040000  1.0 0.1475625167
H  H35  1  0.07190000  0.43570000  0.68130000  1.0 0.1475625167
H  H36  1  0.10610000  0.36110000  0.63720000  1.0 0.1003612688
H  H37  1  0.32110000  0.37890000  0.63800000  1.0 0.1003612688
H  H38  1  0.31650000  0.28830000  0.68220000  1.0 0.1475625167
H  H39  1  0.11160000  0.13320000  0.64230000  1.0 0.1475625167
H  H40  1  0.12210000  0.22530000  0.59470000  1.0 0.1003612688
H  H41  1  0.52340000  0.71700000  0.01120000  1.0 0.0928479673
H  H42  1  0.43470000  0.74790000  0.97270000  1.0 0.1475625167
H  H43  1  0.45800000  0.95600000  0.02600000  1.0 0.1303029152
H  H44  1  0.54200000  0.91240000  0.06600000  1.0 0.1003612688
H  H45  1  0.69210000  0.68750000  0.04790000  1.0 0.1003612688
H  H46  1  0.77470000  0.68690000  0.00150000  1.0 0.140472017
H  H47  1  0.76430000  0.90170000  0.97210000  1.0 0.140472017
H  H48  1  0.67900000  0.89600000  0.01820000  1.0 0.1003612688
H  H49  1  0.44490000  0.72150000  0.10380000  1.0 0.1003612688
H  H50  1  0.36690000  0.74510000  0.15040000  1.0 0.1475625167
H  H51  1  0.56430000  0.92810000  0.18130000  1.0 0.1475625167
H  H52  1  0.63890000  0.89390000  0.13720000  1.0 0.1003612688
H  H53  1  0.62110000  0.67890000  0.13800000  1.0 0.1003612688
H  H54  1  0.71170000  0.68350000  0.18220000  1.0 0.1475625167
H  H55  1  0.86680000  0.88840000  0.14230000  1.0 0.1475625167
H  H56  1  0.77470000  0.87790000  0.09470000  1.0 0.1003612688
H  H57  1  0.28300000  0.47660000  0.51120000  1.0 0.0928479673
H  H58  1  0.25210000  0.56530000  0.47270000  1.0 0.1475625167
H  H59  1  0.04400000  0.54200000  0.52600000  1.0 0.1303029152
H  H60  1  0.08760000  0.45800000  0.56600000  1.0 0.1003612688
H  H61  1  0.31250000  0.30790000  0.54790000  1.0 0.1003612688
H  H62  1  0.31310000  0.22530000  0.50150000  1.0 0.140472017
H  H63  1  0.09830000  0.23570000  0.47210000  1.0 0.140472017
H  H64  1  0.10400000  0.32100000  0.51820000  1.0 0.1003612688
C  C1  1  0.53190000  0.23710000  0.88000000  1.0 0.0632583525
C  C2  1  0.57870000  0.22270000  0.85280000  1.0 -0.1995917136
C  C3  1  0.53970000  0.15870000  0.83140000  1.0 0.1592927797
C  C4  1  0.46070000  0.11450000  0.83410000  1.0 -0.1995917136
C  C5  1  0.41680000  0.13400000  0.86060000  1.0 0.1003612688
C  C6  1  0.58260000  0.14120000  0.80150000  1.0 -0.036758356
C  C7  1  0.62660000  0.13760000  0.78250000  1.0 -0.0017433615
C  C8  1  0.67740000  0.12720000  0.75410000  1.0 -0.1287757093
C  C9  1  0.73970000  0.19750000  0.74300000  1.0 0.140472017
C  C10  1  0.78960000  0.19540000  0.71700000  1.0 0.1592927797
C  C11  1  0.78530000  0.12610000  0.70040000  1.0 -0.2793978063
C  C12  1  0.72290000  0.05690000  0.71030000  1.0 0.1946553083
C  C13  1  0.67010000  0.05710000  0.73910000  1.0 0.1688567641
C  C14  1  0.32870000  0.27890000  0.86110000  1.0 0.0388487064
C  C15  1  0.27640000  0.27620000  0.83520000  1.0 -0.180308616
C  C16  1  0.20640000  0.21380000  0.83500000  1.0 0.1688567641
C  C17  1  0.18300000  0.15420000  0.85920000  1.0 -0.180308616
C  C18  1  0.23810000  0.15990000  0.88680000  1.0 0.0632583525
C  C19  1  0.15550000  0.20890000  0.80550000  1.0 -0.0564836899
C  C20  1  0.10760000  0.19380000  0.78150000  1.0 -0.0490923633
C  C21  1  0.05010000  0.17870000  0.75180000  1.0 -0.0820498189
C  C22  1  0.05600000  0.24120000  0.72790000  1.0 0.140472017
C  C23  1  0.99630000  0.22230000  0.70220000  1.0 0.1592927797
C  C24  1  0.93250000  0.15010000  0.69910000  1.0 -0.3492629661
C  C25  1  0.92890000  0.08850000  0.72310000  1.0 0.2545644434
C  C26  1  0.98700000  0.10740000  0.74960000  1.0 0.1003612688
C  C27  1  0.76280000  0.50880000  0.48590000  1.0 0.1003612688
C  C28  1  0.78300000  0.46000000  0.50910000  1.0 -0.2510418875
C  C29  1  0.85940000  0.44760000  0.50530000  1.0 0.1475625167
C  C30  1  0.90950000  0.47150000  0.47730000  1.0 -0.2106052434
C  C31  1  0.88180000  0.51940000  0.45390000  1.0 0.0265509428
C  C32  1  0.88040000  0.39900000  0.53140000  1.0 -0.0283778561
C  C33  1  0.88440000  0.36080000  0.55240000  1.0 -0.0490923633
C  C34  1  0.88320000  0.31100000  0.58040000  1.0 -0.1208008741
C  C35  1  0.93920000  0.27220000  0.58960000  1.0 0.1592927797
C  C36  1  0.92840000  0.21940000  0.62020000  1.0 0.199176487
C  C37  1  0.86560000  0.19820000  0.64300000  1.0 -0.3386130316
C  C38  1  0.80190000  0.23010000  0.63360000  1.0 0.2659181448
C  C39  1  0.81990000  0.28570000  0.60490000  1.0 0.1106905079
C  C40  1  0.73120000  0.70740000  0.46800000  1.0 0.0539026762
C  C41  1  0.73100000  0.75720000  0.49550000  1.0 -0.1995917136
C  C42  1  0.79850000  0.78250000  0.51950000  1.0 0.1220648641
C  C43  1  0.85670000  0.75070000  0.51280000  1.0 -0.1995917136
C  C44  1  0.85410000  0.69950000  0.48510000  1.0 0.0712656358
C  C45  1  0.80280000  0.83320000  0.54860000  1.0 -0.0283778561
C  C46  1  0.80120000  0.86720000  0.56980000  1.0 0.0010965839
C  C47  1  0.81330000  0.92350000  0.59640000  1.0 -0.1008691032
C  C48  1  0.88310000  0.95570000  0.61840000  1.0 0.1303029152
C  C49  1  0.89710000  0.01390000  0.64380000  1.0 0.199176487
C  C50  1  0.84300000  0.05160000  0.64850000  1.0 -0.3340184299
C  C51  1  0.77100000  0.02120000  0.62890000  1.0 0.2098250659
C  C52  1  0.76160000  0.96020000  0.60440000  1.0 0.1003612688
C  C53  1  0.76290000  0.46810000  0.38000000  1.0 0.0632583525
C  C54  1  0.77730000  0.42130000  0.35280000  1.0 -0.1995917136
C  C55  1  0.84130000  0.46030000  0.33140000  1.0 0.1592927797
C  C56  1  0.88550000  0.53930000  0.33410000  1.0 -0.1995917136
C  C57  1  0.86600000  0.58320000  0.36060000  1.0 0.1003612688
C  C58  1  0.85880000  0.41740000  0.30150000  1.0 -0.036758356
C  C59  1  0.86240000  0.37340000  0.28250000  1.0 -0.0017433615
C  C60  1  0.87280000  0.32260000  0.25410000  1.0 -0.1371077605
C  C61  1  0.80250000  0.26030000  0.24300000  1.0 0.140472017
C  C62  1  0.80460000  0.21040000  0.21700000  1.0 0.1592927797
C  C63  1  0.87390000  0.21470000  0.20040000  1.0 -0.2793978063
C  C64  1  0.94310000  0.27710000  0.21030000  1.0 0.1946553083
C  C65  1  0.94290000  0.32990000  0.23910000  1.0 0.1688567641
C  C66  1  0.72110000  0.67130000  0.36110000  1.0 0.0388487064
C  C67  1  0.72380000  0.72360000  0.33520000  1.0 -0.180308616
C  C68  1  0.78620000  0.79360000  0.33500000  1.0 0.1688567641
C  C69  1  0.84580000  0.81700000  0.35920000  1.0 -0.180308616
C  C70  1  0.84010000  0.76190000  0.38680000  1.0 0.0632583525
C  C71  1  0.79110000  0.84450000  0.30550000  1.0 -0.0564836899
C  C72  1  0.80620000  0.89240000  0.28150000  1.0 -0.0490923633
C  C73  1  0.82130000  0.94990000  0.25180000  1.0 -0.0820498189
C  C74  1  0.75880000  0.94400000  0.22790000  1.0 0.140472017
C  C75  1  0.77770000  0.00370000  0.20220000  1.0 0.1592927797
C  C76  1  0.84990000  0.06750000  0.19910000  1.0 -0.3492629661
C  C77  1  0.91150000  0.07110000  0.22310000  1.0 0.2558000477
C  C78  1  0.89260000  0.01300000  0.24960000  1.0 0.1003612688
C  C79  1  0.49120000  0.23720000  0.98590000  1.0 0.1003612688
C  C80  1  0.54000000  0.21700000  0.00910000  1.0 -0.2510418875
C  C81  1  0.55240000  0.14060000  0.00530000  1.0 0.1475625167
C  C82  1  0.52850000  0.09050000  0.97730000  1.0 -0.2106052434
C  C83  1  0.48060000  0.11820000  0.95390000  1.0 0.0265509428
C  C84  1  0.60100000  0.11960000  0.03140000  1.0 -0.0283778561
C  C85  1  0.63920000  0.11560000  0.05240000  1.0 -0.0490923633
C  C86  1  0.68900000  0.11680000  0.08040000  1.0 -0.1208008741
C  C87  1  0.72780000  0.06080000  0.08960000  1.0 0.1592927797
C  C88  1  0.78060000  0.07160000  0.12020000  1.0 0.199176487
C  C89  1  0.80180000  0.13440000  0.14300000  1.0 -0.3386130316
C  C90  1  0.76990000  0.19810000  0.13360000  1.0 0.2659181448
C  C91  1  0.71430000  0.18010000  0.10490000  1.0 0.1106905079
C  C92  1  0.29260000  0.26880000  0.96800000  1.0 0.0539026762
C  C93  1  0.24280000  0.26900000  0.99550000  1.0 -0.1917547982
C  C94  1  0.21750000  0.20150000  0.01950000  1.0 0.1220648641
C  C95  1  0.24930000  0.14330000  0.01280000  1.0 -0.1995917136
C  C96  1  0.30050000  0.14590000  0.98510000  1.0 0.0712656358
C  C97  1  0.16680000  0.19720000  0.04860000  1.0 -0.0283778561
C  C98  1  0.13280000  0.19880000  0.06980000  1.0 -0.0017433615
C  C99  1  0.07650000  0.18670000  0.09640000  1.0 -0.1008691032
C  C100  1  0.04430000  0.11690000  0.11840000  1.0 0.1303029152
C  C101  1  0.98610000  0.10290000  0.14380000  1.0 0.199176487
C  C102  1  0.94840000  0.15700000  0.14850000  1.0 -0.3340184299
C  C103  1  0.97880000  0.22900000  0.12890000  1.0 0.2098250659
C  C104  1  0.03980000  0.23840000  0.10440000  1.0 0.1003612688
C  C105  1  0.23710000  0.53190000  0.62000000  1.0 0.0632583525
C  C106  1  0.22270000  0.57870000  0.64720000  1.0 -0.1995917136
C  C107  1  0.15870000  0.53970000  0.66860000  1.0 0.1592927797
C  C108  1  0.11450000  0.46070000  0.66590000  1.0 -0.1995917136
C  C109  1  0.13400000  0.41680000  0.63940000  1.0 0.1003612688
C  C110  1  0.14120000  0.58260000  0.69850000  1.0 -0.036758356
C  C111  1  0.13760000  0.62660000  0.71750000  1.0 -0.0017433615
C  C112  1  0.12720000  0.67740000  0.74590000  1.0 -0.1371077605
C  C113  1  0.19750000  0.73970000  0.75700000  1.0 0.140472017
C  C114  1  0.19540000  0.78960000  0.78300000  1.0 0.1592927797
C  C115  1  0.12610000  0.78530000  0.79960000  1.0 -0.2793978063
C  C116  1  0.05690000  0.72290000  0.78970000  1.0 0.1946553083
C  C117  1  0.05710000  0.67010000  0.76090000  1.0 0.1688567641
C  C118  1  0.27890000  0.32870000  0.63890000  1.0 0.0388487064
C  C119  1  0.27620000  0.27640000  0.66480000  1.0 -0.1917547982
C  C120  1  0.21380000  0.20640000  0.66500000  1.0 0.1688567641
C  C121  1  0.15420000  0.18300000  0.64080000  1.0 -0.180308616
C  C122  1  0.15990000  0.23810000  0.61320000  1.0 0.0632583525
C  C123  1  0.20890000  0.15550000  0.69450000  1.0 -0.0564836899
C  C124  1  0.19380000  0.10760000  0.71850000  1.0 -0.0490923633
C  C125  1  0.17870000  0.05010000  0.74820000  1.0 -0.0820498189
C  C126  1  0.24120000  0.05600000  0.77210000  1.0 0.140472017
C  C127  1  0.22230000  0.99630000  0.79780000  1.0 0.1592927797
C  C128  1  0.15010000  0.93250000  0.80090000  1.0 -0.3492629661
C  C129  1  0.08850000  0.92890000  0.77690000  1.0 0.2545644434
C  C130  1  0.10740000  0.98700000  0.75040000  1.0 0.1003612688
C  C131  1  0.50880000  0.76280000  0.01410000  1.0 0.1003612688
C  C132  1  0.46000000  0.78300000  0.99090000  1.0 -0.2510418875
C  C133  1  0.44760000  0.85940000  0.99470000  1.0 0.1475625167
C  C134  1  0.47150000  0.90950000  0.02270000  1.0 -0.2106052434
C  C135  1  0.51940000  0.88180000  0.04610000  1.0 0.0265509428
C  C136  1  0.39900000  0.88040000  0.96860000  1.0 -0.0283778561
C  C137  1  0.36080000  0.88440000  0.94760000  1.0 -0.0490923633
C  C138  1  0.31100000  0.88320000  0.91960000  1.0 -0.1208008741
C  C139  1  0.27220000  0.93920000  0.91040000  1.0 0.1592927797
C  C140  1  0.21940000  0.92840000  0.87980000  1.0 0.199176487
C  C141  1  0.19820000  0.86560000  0.85700000  1.0 -0.3386130316
C  C142  1  0.23010000  0.80190000  0.86640000  1.0 0.2659181448
C  C143  1  0.28570000  0.81990000  0.89510000  1.0 0.1106905079
C  C144  1  0.70740000  0.73120000  0.03200000  1.0 0.0539026762
C  C145  1  0.75720000  0.73100000  0.00450000  1.0 -0.1995917136
C  C146  1  0.78250000  0.79850000  0.98050000  1.0 0.1220648641
C  C147  1  0.75070000  0.85670000  0.98720000  1.0 -0.1995917136
C  C148  1  0.69950000  0.85410000  0.01490000  1.0 0.0712656358
C  C149  1  0.83320000  0.80280000  0.95140000  1.0 -0.0283778561
C  C150  1  0.86720000  0.80120000  0.93020000  1.0 0.0010965839
C  C151  1  0.92350000  0.81330000  0.90360000  1.0 -0.1008691032
C  C152  1  0.95570000  0.88310000  0.88160000  1.0 0.1303029152
C  C153  1  0.01390000  0.89710000  0.85620000  1.0 0.199176487
C  C154  1  0.05160000  0.84300000  0.85150000  1.0 -0.3340184299
C  C155  1  0.02120000  0.77100000  0.87110000  1.0 0.2098250659
C  C156  1  0.96020000  0.76160000  0.89560000  1.0 0.1003612688
C  C157  1  0.46810000  0.76290000  0.12000000  1.0 0.0632583525
C  C158  1  0.42130000  0.77730000  0.14720000  1.0 -0.1995917136
C  C159  1  0.46030000  0.84130000  0.16860000  1.0 0.1592927797
C  C160  1  0.53930000  0.88550000  0.16590000  1.0 -0.1995917136
C  C161  1  0.58320000  0.86600000  0.13940000  1.0 0.1003612688
C  C162  1  0.41740000  0.85880000  0.19850000  1.0 -0.036758356
C  C163  1  0.37340000  0.86240000  0.21750000  1.0 -0.0017433615
C  C164  1  0.32260000  0.87280000  0.24590000  1.0 -0.1287757093
C  C165  1  0.26030000  0.80250000  0.25700000  1.0 0.140472017
C  C166  1  0.21040000  0.80460000  0.28300000  1.0 0.1592927797
C  C167  1  0.21470000  0.87390000  0.29960000  1.0 -0.2793978063
C  C168  1  0.27710000  0.94310000  0.28970000  1.0 0.199176487
C  C169  1  0.32990000  0.94290000  0.26090000  1.0 0.1688567641
C  C170  1  0.67130000  0.72110000  0.13890000  1.0 0.0388487064
C  C171  1  0.72360000  0.72380000  0.16480000  1.0 -0.180308616
C  C172  1  0.79360000  0.78620000  0.16500000  1.0 0.1688567641
C  C173  1  0.81700000  0.84580000  0.14080000  1.0 -0.180308616
C  C174  1  0.76190000  0.84010000  0.11320000  1.0 0.0632583525
C  C175  1  0.84450000  0.79110000  0.19450000  1.0 -0.0564836899
C  C176  1  0.89240000  0.80620000  0.21850000  1.0 -0.0490923633
C  C177  1  0.94990000  0.82130000  0.24820000  1.0 -0.0820498189
C  C178  1  0.94400000  0.75880000  0.27210000  1.0 0.140472017
C  C179  1  0.00370000  0.77770000  0.29780000  1.0 0.1592927797
C  C180  1  0.06750000  0.84990000  0.30090000  1.0 -0.3492629661
C  C181  1  0.07110000  0.91150000  0.27690000  1.0 0.2558000477
C  C182  1  0.01300000  0.89260000  0.25040000  1.0 0.1003612688
C  C183  1  0.23720000  0.49120000  0.51410000  1.0 0.1003612688
C  C184  1  0.21700000  0.54000000  0.49090000  1.0 -0.2510418875
C  C185  1  0.14060000  0.55240000  0.49470000  1.0 0.1475625167
C  C186  1  0.09050000  0.52850000  0.52270000  1.0 -0.2106052434
C  C187  1  0.11820000  0.48060000  0.54610000  1.0 0.0265509428
C  C188  1  0.11960000  0.60100000  0.46860000  1.0 -0.0283778561
C  C189  1  0.11560000  0.63920000  0.44760000  1.0 -0.0490923633
C  C190  1  0.11680000  0.68900000  0.41960000  1.0 -0.1208008741
C  C191  1  0.06080000  0.72780000  0.41040000  1.0 0.1592927797
C  C192  1  0.07160000  0.78060000  0.37980000  1.0 0.199176487
C  C193  1  0.13440000  0.80180000  0.35700000  1.0 -0.3386130316
C  C194  1  0.19810000  0.76990000  0.36640000  1.0 0.2659181448
C  C195  1  0.18010000  0.71430000  0.39510000  1.0 0.1106905079
C  C196  1  0.26880000  0.29260000  0.53200000  1.0 0.0539026762
C  C197  1  0.26900000  0.24280000  0.50450000  1.0 -0.1917547982
C  C198  1  0.20150000  0.21750000  0.48050000  1.0 0.1220648641
C  C199  1  0.14330000  0.24930000  0.48720000  1.0 -0.1995917136
C  C200  1  0.14590000  0.30050000  0.51490000  1.0 0.0712656358
C  C201  1  0.19720000  0.16680000  0.45140000  1.0 -0.0283778561
C  C202  1  0.19880000  0.13280000  0.43020000  1.0 -0.0017433615
C  C203  1  0.18670000  0.07650000  0.40360000  1.0 -0.1008691032
C  C204  1  0.11690000  0.04430000  0.38160000  1.0 0.1303029152
C  C205  1  0.10290000  0.98610000  0.35620000  1.0 0.199176487
C  C206  1  0.15700000  0.94840000  0.35150000  1.0 -0.3340184299
C  C207  1  0.22900000  0.97880000  0.37110000  1.0 0.2098250659
C  C208  1  0.23840000  0.03980000  0.39560000  1.0 0.1003612688
N  N1  1  0.45400000  0.19060000  0.88200000  1.0 -0.1995917136
N  N2  1  0.30950000  0.22110000  0.88600000  1.0 -0.22112746
N  N3  1  0.80990000  0.53350000  0.45990000  1.0 -0.2277042924
N  N4  1  0.79140000  0.68060000  0.46360000  1.0 -0.1917547982
N  N5  1  0.80940000  0.54600000  0.38200000  1.0 -0.1995917136
N  N6  1  0.77890000  0.69050000  0.38600000  1.0 -0.22112746
N  N7  1  0.46650000  0.19010000  0.95990000  1.0 -0.2277042924
N  N8  1  0.31940000  0.20860000  0.96360000  1.0 -0.1917547982
N  N9  1  0.19060000  0.45400000  0.61800000  1.0 -0.1995917136
N  N10  1  0.22110000  0.30950000  0.61400000  1.0 -0.22112746
N  N11  1  0.53350000  0.80990000  0.04010000  1.0 -0.2277042924
N  N12  1  0.68060000  0.79140000  0.03640000  1.0 -0.1917547982
N  N13  1  0.54600000  0.80940000  0.11800000  1.0 -0.1995917136
N  N14  1  0.69050000  0.77890000  0.11400000  1.0 -0.22112746
N  N15  1  0.19010000  0.46650000  0.54010000  1.0 -0.2277042924
N  N16  1  0.20860000  0.31940000  0.53640000  1.0 -0.1917547982
F  F1  1  0.74660000  0.26720000  0.75766000  1.0 -0.1208008741
F  F2  1  0.84690000  0.26470000  0.70814000  1.0 -0.111207807
F  F3  1  0.71460000  0.98380000  0.69798000  1.0 -0.111207807
F  F4  1  0.61690000  0.98910000  0.74740000  1.0 -0.1008691032
F  F5  1  0.11370000  0.31270000  0.72793000  1.0 -0.1287757093
F  F6  1  0.00450000  0.28610000  0.68017000  1.0 -0.1287757093
F  F7  1  0.87580000  0.02140000  0.72392000  1.0 -0.0915869334
F  F8  1  0.98190000  0.05050000  0.77406000  1.0 -0.1008691032
F  F9  1  0.00610000  0.28970000  0.57262000  1.0 -0.1472462474
F  F10  1  0.98650000  0.18830000  0.62460000  1.0 -0.1287757093
F  F11  1  0.73880000  0.21700000  0.65128000  1.0 -0.111207807
F  F12  1  0.75460000  0.31200000  0.59889000  1.0 -0.1287757093
F  F13  1  0.94250000  0.92390000  0.61332000  1.0 -0.1371077605
F  F14  1  0.96760000  0.03620000  0.65920000  1.0 -0.1208008741
F  F15  1  0.71270000  0.05430000  0.63254000  1.0 -0.111207807
F  F16  1  0.68760000  0.93980000  0.58613000  1.0 -0.1287757093
F  F17  1  0.73280000  0.25340000  0.25766000  1.0 -0.1208008741
F  F18  1  0.73530000  0.15310000  0.20814000  1.0 -0.111207807
F  F19  1  0.01620000  0.28540000  0.19798000  1.0 -0.111207807
F  F20  1  0.01090000  0.38310000  0.24740000  1.0 -0.1008691032
F  F21  1  0.68730000  0.88630000  0.22793000  1.0 -0.1287757093
F  F22  1  0.71390000  0.99550000  0.18017000  1.0 -0.1287757093
F  F23  1  0.97860000  0.12420000  0.22392000  1.0 -0.0915869334
F  F24  1  0.94950000  0.01810000  0.27406000  1.0 -0.1008691032
F  F25  1  0.71030000  0.99390000  0.07262000  1.0 -0.1472462474
F  F26  1  0.81170000  0.01350000  0.12460000  1.0 -0.1287757093
F  F27  1  0.78300000  0.26120000  0.15128000  1.0 -0.111207807
F  F28  1  0.68800000  0.24540000  0.09889000  1.0 -0.1287757093
F  F29  1  0.07610000  0.05750000  0.11332000  1.0 -0.1371077605
F  F30  1  0.96380000  0.03240000  0.15920000  1.0 -0.1208008741
F  F31  1  0.94570000  0.28730000  0.13254000  1.0 -0.1208008741
F  F32  1  0.06020000  0.31240000  0.08613000  1.0 -0.1287757093
F  F33  1  0.26720000  0.74660000  0.74234000  1.0 -0.1208008741
F  F34  1  0.26470000  0.84690000  0.79186000  1.0 -0.111207807
F  F35  1  0.98380000  0.71460000  0.80202000  1.0 -0.1008691032
F  F36  1  0.98910000  0.61690000  0.75260000  1.0 -0.0915869334
F  F37  1  0.31270000  0.11370000  0.77207000  1.0 -0.1287757093
F  F38  1  0.28610000  0.00450000  0.81983000  1.0 -0.1287757093
F  F39  1  0.02140000  0.87580000  0.77608000  1.0 -0.0915869334
F  F40  1  0.05050000  0.98190000  0.72594000  1.0 -0.1008691032
F  F41  1  0.28970000  0.00610000  0.92738000  1.0 -0.1472462474
F  F42  1  0.18830000  0.98650000  0.87540000  1.0 -0.1287757093
F  F43  1  0.21700000  0.73880000  0.84872000  1.0 -0.111207807
F  F44  1  0.31200000  0.75460000  0.90111000  1.0 -0.1208008741
F  F45  1  0.92390000  0.94250000  0.88668000  1.0 -0.1371077605
F  F46  1  0.03620000  0.96760000  0.84080000  1.0 -0.1287757093
F  F47  1  0.05430000  0.71270000  0.86746000  1.0 -0.111207807
F  F48  1  0.93980000  0.68760000  0.91387000  1.0 -0.1287757093
F  F49  1  0.25340000  0.73280000  0.24234000  1.0 -0.1208008741
F  F50  1  0.15310000  0.73530000  0.29186000  1.0 -0.111207807
F  F51  1  0.28540000  0.01620000  0.30202000  1.0 -0.1008691032
F  F52  1  0.38310000  0.01090000  0.25260000  1.0 -0.0915869334
F  F53  1  0.88630000  0.68730000  0.27207000  1.0 -0.1287757093
F  F54  1  0.99550000  0.71390000  0.31983000  1.0 -0.1287757093
F  F55  1  0.12420000  0.97860000  0.27608000  1.0 -0.0915869334
F  F56  1  0.01810000  0.94950000  0.22594000  1.0 -0.1008691032
F  F57  1  0.99390000  0.71030000  0.42738000  1.0 -0.1472462474
F  F58  1  0.01350000  0.81170000  0.37540000  1.0 -0.1287757093
F  F59  1  0.26120000  0.78300000  0.34872000  1.0 -0.111207807
F  F60  1  0.24540000  0.68800000  0.40111000  1.0 -0.1287757093
F  F61  1  0.05750000  0.07610000  0.38668000  1.0 -0.1371077605
F  F62  1  0.03240000  0.96380000  0.34080000  1.0 -0.1287757093
F  F63  1  0.28730000  0.94570000  0.36746000  1.0 -0.1208008741
F  F64  1  0.31240000  0.06020000  0.41387000  1.0 -0.1287757093
