# DDEC6 charges by PACMAN v1.1 (https://github.com/mtap-research/PACMAN-charge/)
data_XULDOZ_FSR_pacman
_symmetry_space_group_name_H-M   'P 1'
_cell_length_a   16.30030000
_cell_length_b   16.21440000
_cell_length_c   15.99110000
_cell_angle_alpha   60.80860000
_cell_angle_beta   60.27270000
_cell_angle_gamma   58.91870000
_symmetry_Int_Tables_number   1
_chemical_formula_structural   Co5H36(C3O2)14
_chemical_formula_sum   'Co10 H72 C84 O56'
_cell_volume   2986.83061596
_cell_formula_units_Z   2
loop_
 _symmetry_equiv_pos_site_id
 _symmetry_equiv_pos_as_xyz
  1  'x, y, z'
loop_
 _atom_site_type_symbol
 _atom_site_label
 _atom_site_symmetry_multiplicity
 _atom_site_fract_x
 _atom_site_fract_y
 _atom_site_fract_z
 _atom_site_occupancy
 _atom_site_charge
Co  Co1  1  0.30022000  0.19978000  0.30022000  1.0 1.2110021618
Co  Co2  1  0.05022000  0.94978000  0.05022000  1.0 1.2110021618
Co  Co3  1  0.28563000  0.23733000  0.49409000  1.0 1.0345006493
Co  Co4  1  0.49409000  0.98295000  0.28563000  1.0 1.0345006493
Co  Co5  1  0.26705000  0.75591000  0.01267000  1.0 1.0345006493
Co  Co6  1  0.01267000  0.96437000  0.26705000  1.0 1.0345006493
Co  Co7  1  0.13627000  0.42121000  0.37083000  1.0 1.1016404537
Co  Co8  1  0.37083000  0.07169000  0.13627000  1.0 1.1016404537
Co  Co9  1  0.17831000  0.87917000  0.82879000  1.0 1.1016404537
Co  Co10  1  0.82879000  0.11373000  0.17831000  1.0 1.1016404537
H  H1  1  0.99410000  0.55990000  0.43550000  1.0 0.3453743962
H  H2  1  0.43550000  0.01050000  0.99410000  1.0 0.3453743962
H  H3  1  0.23950000  0.81450000  0.69010000  1.0 0.3406664836
H  H4  1  0.69010000  0.25590000  0.23950000  1.0 0.3406664836
H  H5  1  0.96130000  0.52170000  0.39930000  1.0 0.3406664836
H  H6  1  0.39930000  0.11770000  0.96130000  1.0 0.3406664836
H  H7  1  0.13230000  0.85070000  0.72830000  1.0 0.3406664836
H  H8  1  0.72830000  0.28870000  0.13230000  1.0 0.3406664836
H  H9  1  0.49880000  0.98600000  0.70840000  1.0 0.1544675735
H  H10  1  0.70840000  0.80680000  0.49880000  1.0 0.1555266288
H  H11  1  0.44320000  0.54160000  0.26400000  1.0 0.1544675735
H  H12  1  0.26400000  0.75120000  0.44320000  1.0 0.1544675735
H  H13  1  0.79300000  0.90600000  0.60260000  1.0 0.1377064643
H  H14  1  0.60260000  0.69840000  0.79300000  1.0 0.1377064643
H  H15  1  0.55160000  0.64740000  0.34400000  1.0 0.1377064643
H  H16  1  0.34400000  0.45700000  0.55160000  1.0 0.1377064643
H  H17  1  0.62120000  0.09380000  0.42080000  1.0 0.1305775718
H  H18  1  0.42080000  0.86420000  0.62120000  1.0 0.1305775718
H  H19  1  0.38580000  0.82920000  0.15620000  1.0 0.1305775718
H  H20  1  0.15620000  0.62880000  0.38580000  1.0 0.1305775718
H  H21  1  0.79630000  0.82350000  0.76910000  1.0 0.0884309518
H  H22  1  0.76910000  0.61110000  0.79630000  1.0 0.0884309518
H  H23  1  0.63890000  0.48090000  0.42650000  1.0 0.0884309518
H  H24  1  0.42650000  0.45370000  0.63890000  1.0 0.0884309518
H  H25  1  0.74460000  0.93640000  0.77080000  1.0 0.08097011
H  H26  1  0.77080000  0.54820000  0.74460000  1.0 0.08097011
H  H27  1  0.70180000  0.47920000  0.31360000  1.0 0.08097011
H  H28  1  0.31360000  0.50540000  0.70180000  1.0 0.08097011
H  H29  1  0.64790000  0.80390000  0.93990000  1.0 0.1231840161
H  H30  1  0.93990000  0.60830000  0.64790000  1.0 0.1231840161
H  H31  1  0.64170000  0.31010000  0.44610000  1.0 0.1231840161
H  H32  1  0.44610000  0.60210000  0.64170000  1.0 0.1231840161
H  H33  1  0.66310000  0.89170000  0.94090000  1.0 0.1112550889
H  H34  1  0.94090000  0.50430000  0.66310000  1.0 0.1112550889
H  H35  1  0.74570000  0.30910000  0.35830000  1.0 0.1112550889
H  H36  1  0.35830000  0.58690000  0.74570000  1.0 0.1112550889
H  H37  1  0.83530000  0.79030000  0.92970000  1.0 0.0884309518
H  H38  1  0.92970000  0.44470000  0.83530000  1.0 0.0884309518
H  H39  1  0.80530000  0.32030000  0.45970000  1.0 0.0884309518
H  H40  1  0.45970000  0.41470000  0.80530000  1.0 0.0884309518
H  H41  1  0.82740000  0.70460000  0.91700000  1.0 0.0884309518
H  H42  1  0.91700000  0.55100000  0.82740000  1.0 0.0884309518
H  H43  1  0.69900000  0.33300000  0.54540000  1.0 0.0884309518
H  H44  1  0.54540000  0.42260000  0.69900000  1.0 0.0884309518
H  H45  1  0.70750000  0.67790000  0.08510000  1.0 0.1231840161
H  H46  1  0.08510000  0.52950000  0.70750000  1.0 0.1231840161
H  H47  1  0.72050000  0.16490000  0.57210000  1.0 0.1231840161
H  H48  1  0.57210000  0.54250000  0.72050000  1.0 0.1231840161
H  H49  1  0.71760000  0.76220000  0.09780000  1.0 0.1305775718
H  H50  1  0.09780000  0.42240000  0.71760000  1.0 0.1305775718
H  H51  1  0.82760000  0.15220000  0.48780000  1.0 0.1305775718
H  H52  1  0.48780000  0.53240000  0.82760000  1.0 0.1305775718
H  H53  1  0.83190000  0.62570000  0.17090000  1.0 0.1002596078
H  H54  1  0.17090000  0.37150000  0.83190000  1.0 0.1002596078
H  H55  1  0.87850000  0.07910000  0.62430000  1.0 0.1002596078
H  H56  1  0.62430000  0.41810000  0.87850000  1.0 0.1002596078
H  H57  1  0.90590000  0.64490000  0.05770000  1.0 0.1002596078
H  H58  1  0.05770000  0.39150000  0.90590000  1.0 0.1002596078
H  H59  1  0.85850000  0.19230000  0.60510000  1.0 0.1002596078
H  H60  1  0.60510000  0.34410000  0.85850000  1.0 0.1002596078
H  H61  1  0.97300000  0.49560000  0.19320000  1.0 0.1305775718
H  H62  1  0.19320000  0.33820000  0.97300000  1.0 0.1305775718
H  H63  1  0.91180000  0.05680000  0.75440000  1.0 0.1305775718
H  H64  1  0.75440000  0.27700000  0.91180000  1.0 0.1305775718
H  H65  1  0.05920000  0.19500000  0.27400000  1.0 0.1305775718
H  H66  1  0.27400000  0.47180000  0.05920000  1.0 0.1305775718
H  H67  1  0.77820000  0.97600000  0.05500000  1.0 0.1305775718
H  H68  1  0.05500000  0.19080000  0.77820000  1.0 0.1305775718
H  H69  1  0.86610000  0.38230000  0.11270000  1.0 0.1377064643
H  H70  1  0.11270000  0.63890000  0.86610000  1.0 0.1377064643
H  H71  1  0.61110000  0.13730000  0.86770000  1.0 0.1377064643
H  H72  1  0.86770000  0.38390000  0.61110000  1.0 0.1377064643
C  C1  1  0.43840000  0.10760000  0.55360000  1.0 0.5032764184
C  C2  1  0.55360000  0.90040000  0.43840000  1.0 0.5050874857
C  C3  1  0.34960000  0.69640000  0.14240000  1.0 0.5032764184
C  C4  1  0.14240000  0.81160000  0.34960000  1.0 0.5032764184
C  C5  1  0.54320000  0.05000000  0.56880000  1.0 0.0244597924
C  C6  1  0.56880000  0.83800000  0.54320000  1.0 0.0244597924
C  C7  1  0.41200000  0.68120000  0.20000000  1.0 0.0244597924
C  C8  1  0.20000000  0.70680000  0.41200000  1.0 0.0244597924
C  C9  1  0.55560000  0.99540000  0.65300000  1.0 -0.2013920898
C  C10  1  0.65300000  0.79600000  0.55560000  1.0 -0.2013920898
C  C11  1  0.45400000  0.59700000  0.25460000  1.0 -0.2013920898
C  C12  1  0.25460000  0.69440000  0.45400000  1.0 -0.2013920898
C  C13  1  0.64820000  0.94720000  0.67040000  1.0 0.2060023752
C  C14  1  0.67040000  0.73420000  0.64820000  1.0 0.2060023752
C  C15  1  0.51580000  0.57960000  0.30280000  1.0 0.2060023752
C  C16  1  0.30280000  0.60180000  0.51580000  1.0 0.2060023752
C  C17  1  0.72980000  0.94620000  0.59400000  1.0 -0.2117773088
C  C18  1  0.59400000  0.73000000  0.72980000  1.0 -0.2117773088
C  C19  1  0.52000000  0.65600000  0.30380000  1.0 -0.2117773088
C  C20  1  0.30380000  0.52020000  0.52000000  1.0 -0.2117773088
C  C21  1  0.72180000  0.00540000  0.49960000  1.0 0.0059487784
C  C22  1  0.49960000  0.77320000  0.72180000  1.0 0.0059487784
C  C23  1  0.47680000  0.75040000  0.24460000  1.0 0.0059487784
C  C24  1  0.24460000  0.52820000  0.47680000  1.0 0.0059487784
C  C25  1  0.62680000  0.05660000  0.48520000  1.0 -0.1620006132
C  C26  1  0.48520000  0.83140000  0.62680000  1.0 -0.1620006132
C  C27  1  0.41860000  0.76480000  0.19340000  1.0 -0.1620006132
C  C28  1  0.19340000  0.62320000  0.41860000  1.0 -0.1620006132
C  C29  1  0.81340000  0.01380000  0.40040000  1.0 0.5448928383
C  C30  1  0.40040000  0.77240000  0.81340000  1.0 0.5485692051
C  C31  1  0.47760000  0.84960000  0.23620000  1.0 0.5448928383
C  C32  1  0.23620000  0.43660000  0.47760000  1.0 0.5448928383
C  C33  1  0.73370000  0.87370000  0.79630000  1.0 -0.0130375231
C  C34  1  0.79630000  0.59630000  0.73370000  1.0 -0.0130375231
C  C35  1  0.65370000  0.45370000  0.37630000  1.0 -0.0130375231
C  C36  1  0.37630000  0.51630000  0.65370000  1.0 -0.0130375231
C  C37  1  0.69620000  0.83540000  0.91460000  1.0 -0.2117773088
C  C38  1  0.91460000  0.55380000  0.69620000  1.0 -0.2117773088
C  C39  1  0.69620000  0.33540000  0.41460000  1.0 -0.2117773088
C  C40  1  0.41460000  0.55380000  0.69620000  1.0 -0.2117773088
C  C41  1  0.79040000  0.75700000  0.94920000  1.0 -0.1620006132
C  C42  1  0.94920000  0.50340000  0.79040000  1.0 -0.1620006132
C  C43  1  0.74660000  0.30080000  0.49300000  1.0 -0.1620006132
C  C44  1  0.49300000  0.45960000  0.74660000  1.0 -0.1620006132
C  C45  1  0.75380000  0.70960000  0.06600000  1.0 -0.2482880968
C  C46  1  0.06600000  0.47060000  0.75380000  1.0 -0.2482880968
C  C47  1  0.77940000  0.18400000  0.54040000  1.0 -0.2482880968
C  C48  1  0.54040000  0.49620000  0.77940000  1.0 -0.2482880968
C  C49  1  0.84470000  0.62990000  0.10310000  1.0 0.0588405097
C  C50  1  0.10310000  0.42230000  0.84470000  1.0 0.0588405097
C  C51  1  0.82770000  0.14690000  0.62010000  1.0 0.0588405097
C  C52  1  0.62010000  0.40530000  0.82770000  1.0 0.0588405097
C  C53  1  0.90830000  0.45590000  0.14630000  1.0 0.2060023752
C  C54  1  0.14630000  0.48950000  0.90830000  1.0 0.2060023752
C  C55  1  0.76050000  0.10370000  0.79410000  1.0 0.2060023752
C  C56  1  0.79410000  0.34170000  0.76050000  1.0 0.2060023752
C  C57  1  0.96910000  0.44050000  0.19290000  1.0 -0.2482880968
C  C58  1  0.19290000  0.39750000  0.96910000  1.0 -0.2482880968
C  C59  1  0.85250000  0.05710000  0.80950000  1.0 -0.2482880968
C  C60  1  0.80950000  0.28090000  0.85250000  1.0 -0.2482880968
C  C61  1  0.02400000  0.34420000  0.23820000  1.0 0.0030898711
C  C62  1  0.23820000  0.39360000  0.02400000  1.0 0.0030898711
C  C63  1  0.85640000  0.01180000  0.90580000  1.0 0.0030898711
C  C64  1  0.90580000  0.22600000  0.85640000  1.0 0.0030898711
C  C65  1  0.02220000  0.25920000  0.24040000  1.0 -0.1133073213
C  C66  1  0.24040000  0.47820000  0.02220000  1.0 -0.1133073213
C  C67  1  0.77180000  0.00960000  0.99080000  1.0 -0.1133073213
C  C68  1  0.99080000  0.22780000  0.77180000  1.0 -0.1133073213
C  C69  1  0.96430000  0.27030000  0.19170000  1.0 -0.0926805797
C  C70  1  0.19170000  0.57370000  0.96430000  1.0 -0.0926805797
C  C71  1  0.67630000  0.05830000  0.97970000  1.0 -0.0926805797
C  C72  1  0.97970000  0.28570000  0.67630000  1.0 -0.0926805797
C  C73  1  0.90630000  0.37230000  0.14490000  1.0 -0.2395251225
C  C74  1  0.14490000  0.57650000  0.90630000  1.0 -0.2395251225
C  C75  1  0.67350000  0.10510000  0.87770000  1.0 -0.2395251225
C  C76  1  0.87770000  0.34370000  0.67350000  1.0 -0.2395251225
C  C77  1  0.96070000  0.18850000  0.18950000  1.0 0.5295716432
C  C78  1  0.18950000  0.66130000  0.96070000  1.0 0.5295716432
C  C79  1  0.58870000  0.06050000  0.06150000  1.0 0.5295716432
C  C80  1  0.06150000  0.28930000  0.58870000  1.0 0.5295716432
C  C81  1  0.09510000  0.32910000  0.28630000  1.0 0.5485692051
C  C82  1  0.28630000  0.28950000  0.09510000  1.0 0.5485692051
C  C83  1  0.96050000  0.96370000  0.92090000  1.0 0.5485692051
C  C84  1  0.92090000  0.15490000  0.96050000  1.0 0.5485692051
O  O1  1  0.36280000  0.11020000  0.62380000  1.0 -0.4416667166
O  O2  1  0.62380000  0.90320000  0.36280000  1.0 -0.4416667166
O  O3  1  0.34680000  0.62620000  0.13980000  1.0 -0.4416667166
O  O4  1  0.13980000  0.88720000  0.34680000  1.0 -0.4416667166
O  O5  1  0.44090000  0.15730000  0.46110000  1.0 -0.480164619
O  O6  1  0.46110000  0.94070000  0.44090000  1.0 -0.480164619
O  O7  1  0.30930000  0.78890000  0.09270000  1.0 -0.480164619
O  O8  1  0.09270000  0.80910000  0.30930000  1.0 -0.480164619
O  O9  1  0.79360000  0.08520000  0.32680000  1.0 -0.555939922
O  O10  1  0.32680000  0.79440000  0.79360000  1.0 -0.555939922
O  O11  1  0.45560000  0.92320000  0.16480000  1.0 -0.555939922
O  O12  1  0.16480000  0.45640000  0.45560000  1.0 -0.555939922
O  O13  1  0.90010000  0.94910000  0.40430000  1.0 -0.5351163837
O  O14  1  0.40430000  0.74650000  0.90010000  1.0 -0.5280891815
O  O15  1  0.50350000  0.84570000  0.30090000  1.0 -0.5351163837
O  O16  1  0.30090000  0.34990000  0.50350000  1.0 -0.5351163837
O  O17  1  0.65510000  0.88930000  0.77030000  1.0 -0.2013920898
O  O18  1  0.77030000  0.68530000  0.65510000  1.0 -0.2013920898
O  O19  1  0.56470000  0.47970000  0.36070000  1.0 -0.2013920898
O  O20  1  0.36070000  0.59490000  0.56470000  1.0 -0.2013920898
O  O21  1  0.85130000  0.55050000  0.10210000  1.0 -0.1133073213
O  O22  1  0.10210000  0.49610000  0.85130000  1.0 -0.1133073213
O  O23  1  0.75390000  0.14790000  0.69950000  1.0 -0.1133073213
O  O24  1  0.69950000  0.39870000  0.75390000  1.0 -0.1133073213
O  O25  1  0.90690000  0.19930000  0.14490000  1.0 -0.6172922346
O  O26  1  0.14490000  0.74890000  0.90690000  1.0 -0.6172922346
O  O27  1  0.50110000  0.10510000  0.05070000  1.0 -0.6172922346
O  O28  1  0.05070000  0.34310000  0.50110000  1.0 -0.6172922346
O  O29  1  0.01100000  0.09920000  0.23620000  1.0 -0.5109853091
O  O30  1  0.23620000  0.65360000  0.01100000  1.0 -0.5109853091
O  O31  1  0.59640000  0.01380000  0.15080000  1.0 -0.5109853091
O  O32  1  0.15080000  0.23900000  0.59640000  1.0 -0.5109853091
O  O33  1  0.09120000  0.40840000  0.28520000  1.0 -0.5280891815
O  O34  1  0.28520000  0.21520000  0.09120000  1.0 -0.5280891815
O  O35  1  0.03480000  0.96480000  0.84160000  1.0 -0.5280891815
O  O36  1  0.84160000  0.15880000  0.03480000  1.0 -0.5280891815
O  O37  1  0.14890000  0.24250000  0.32290000  1.0 -0.5280891815
O  O38  1  0.32290000  0.28570000  0.14890000  1.0 -0.5280891815
O  O39  1  0.96430000  0.92710000  0.00750000  1.0 -0.5280891815
O  O40  1  0.00750000  0.10110000  0.96430000  1.0 -0.5280891815
O  O41  1  0.46630000  0.13830000  0.28330000  1.0 -0.0971781629
O  O42  1  0.28330000  0.11210000  0.46630000  1.0 -0.0926805797
O  O43  1  0.13790000  0.96670000  0.11170000  1.0 -0.0971781629
O  O44  1  0.11170000  0.78370000  0.13790000  1.0 -0.0971781629
O  O45  1  0.27930000  0.30510000  0.34950000  1.0 -0.8516977373
O  O46  1  0.34950000  0.06610000  0.27930000  1.0 -0.8516977373
O  O47  1  0.18390000  0.90050000  0.94490000  1.0 -0.8516977373
O  O48  1  0.94490000  0.97070000  0.18390000  1.0 -0.8516977373
O  O49  1  0.99830000  0.55250000  0.38430000  1.0 -0.6311793568
O  O50  1  0.38430000  0.06490000  0.99830000  1.0 -0.6311793568
O  O51  1  0.18510000  0.86570000  0.69750000  1.0 -0.6311793568
O  O52  1  0.69750000  0.25170000  0.18510000  1.0 -0.6311793568
O  O53  1  0.19670000  0.53130000  0.23950000  1.0 0.08097011
O  O54  1  0.23950000  0.03250000  0.19670000  1.0 0.08097011
O  O55  1  0.21750000  0.01050000  0.71870000  1.0 0.0733939317
O  O56  1  0.71870000  0.05330000  0.21750000  1.0 0.08097011
