# DDEC6 charges by PACMAN v1.1 (https://github.com/mtap-research/PACMAN-charge/)
data_XULFOA_FSR_pacman
_symmetry_space_group_name_H-M   'P 1'
_cell_length_a   9.31390000
_cell_length_b   9.31390000
_cell_length_c   13.31330000
_cell_angle_alpha   90.00000000
_cell_angle_beta   90.00000000
_cell_angle_gamma   120.00000000
_symmetry_Int_Tables_number   1
_chemical_formula_structural   Cu3H36C44(NO)6
_chemical_formula_sum   'Cu3 H36 C44 N6 O6'
_cell_volume   1000.18305306
_cell_formula_units_Z   1
loop_
 _symmetry_equiv_pos_site_id
 _symmetry_equiv_pos_as_xyz
  1  'x, y, z'
loop_
 _atom_site_type_symbol
 _atom_site_label
 _atom_site_symmetry_multiplicity
 _atom_site_fract_x
 _atom_site_fract_y
 _atom_site_fract_z
 _atom_site_occupancy
 _atom_site_charge
Cu  Cu1  1  0.18143000  0.85091000  0.00000000  1.0 0.7686505793
Cu  Cu2  1  0.66948000  0.81857000  0.00000000  1.0 0.7686505793
Cu  Cu3  1  0.14909000  0.33052000  0.00000000  1.0 0.7686505793
H  H1  1  0.33640000  0.09350000  0.83650000  1.0 0.1107073648
H  H2  1  0.75710000  0.66360000  0.16350000  1.0 0.1107073648
H  H3  1  0.90650000  0.24290000  0.83650000  1.0 0.1107073648
H  H4  1  0.33640000  0.09350000  0.16350000  1.0 0.1107073648
H  H5  1  0.75710000  0.66360000  0.83650000  1.0 0.1107073648
H  H6  1  0.90650000  0.24290000  0.16350000  1.0 0.1107073648
H  H7  1  0.34930000  0.10070000  0.66430000  1.0 0.1107073648
H  H8  1  0.75140000  0.65070000  0.33570000  1.0 0.1107073648
H  H9  1  0.89930000  0.24860000  0.66430000  1.0 0.1107073648
H  H10  1  0.34930000  0.10070000  0.33570000  1.0 0.1107073648
H  H11  1  0.75140000  0.65070000  0.66430000  1.0 0.1107073648
H  H12  1  0.89930000  0.24860000  0.33570000  1.0 0.1107073648
H  H13  1  0.02900000  0.61190000  0.66160000  1.0 0.1107073648
H  H14  1  0.58290000  0.97100000  0.33840000  1.0 0.1107073648
H  H15  1  0.38810000  0.41710000  0.66160000  1.0 0.1107073648
H  H16  1  0.02900000  0.61190000  0.33840000  1.0 0.1107073648
H  H17  1  0.58290000  0.97100000  0.66160000  1.0 0.1107073648
H  H18  1  0.38810000  0.41710000  0.33840000  1.0 0.1107073648
H  H19  1  0.03450000  0.61270000  0.83250000  1.0 0.1107073648
H  H20  1  0.57820000  0.96550000  0.16750000  1.0 0.1107073648
H  H21  1  0.38730000  0.42180000  0.83250000  1.0 0.1107073648
H  H22  1  0.03450000  0.61270000  0.16750000  1.0 0.1107073648
H  H23  1  0.57820000  0.96550000  0.83250000  1.0 0.1107073648
H  H24  1  0.38730000  0.42180000  0.16750000  1.0 0.1107073648
H  H25  1  0.35020000  0.86040000  0.51360000  1.0 0.1107073648
H  H26  1  0.51020000  0.64980000  0.48640000  1.0 0.1107073648
H  H27  1  0.13960000  0.48980000  0.51360000  1.0 0.1107073648
H  H28  1  0.35020000  0.86040000  0.48640000  1.0 0.1107073648
H  H29  1  0.51020000  0.64980000  0.51360000  1.0 0.1107073648
H  H30  1  0.13960000  0.48980000  0.48640000  1.0 0.1107073648
H  H31  1  0.02720000  0.86220000  0.48440000  1.0 0.0981130814
H  H32  1  0.83500000  0.97280000  0.51560000  1.0 0.0981130814
H  H33  1  0.13780000  0.16500000  0.48440000  1.0 0.0981130814
H  H34  1  0.02720000  0.86220000  0.51560000  1.0 0.0981130814
H  H35  1  0.83500000  0.97280000  0.48440000  1.0 0.0981130814
H  H36  1  0.13780000  0.16500000  0.51560000  1.0 0.0981130814
C  C1  1  0.33333333  0.66666667  0.00000000  1.0 0.7810132085
C  C2  1  0.00000000  0.00000000  0.00000000  1.0 0.7686505793
C  C3  1  0.27630000  0.99540000  0.80060000  1.0 0.0912641613
C  C4  1  0.71910000  0.72370000  0.19940000  1.0 0.0912641613
C  C5  1  0.00460000  0.28090000  0.80060000  1.0 0.0912641613
C  C6  1  0.27630000  0.99540000  0.19940000  1.0 0.0912641613
C  C7  1  0.71910000  0.72370000  0.80060000  1.0 0.0912641613
C  C8  1  0.00460000  0.28090000  0.19940000  1.0 0.0912641613
C  C9  1  0.28300000  0.00040000  0.69690000  1.0 -0.2765667559
C  C10  1  0.71740000  0.71700000  0.30310000  1.0 -0.2765667559
C  C11  1  0.99960000  0.28260000  0.69690000  1.0 -0.2765667559
C  C12  1  0.28300000  0.00040000  0.30310000  1.0 -0.2765667559
C  C13  1  0.71740000  0.71700000  0.69690000  1.0 -0.2765667559
C  C14  1  0.99960000  0.28260000  0.30310000  1.0 -0.2765667559
C  C15  1  0.19280000  0.85870000  0.64130000  1.0 0.0981130814
C  C16  1  0.66590000  0.80720000  0.35870000  1.0 0.0981130814
C  C17  1  0.14130000  0.33410000  0.64130000  1.0 0.0981130814
C  C18  1  0.19280000  0.85870000  0.35870000  1.0 0.0981130814
C  C19  1  0.66590000  0.80720000  0.64130000  1.0 0.0981130814
C  C20  1  0.14130000  0.33410000  0.35870000  1.0 0.0981130814
C  C21  1  0.09480000  0.71060000  0.69580000  1.0 -0.3020327212
C  C22  1  0.61580000  0.90520000  0.30420000  1.0 -0.3020327212
C  C23  1  0.28940000  0.38420000  0.69580000  1.0 -0.3020327212
C  C24  1  0.09480000  0.71060000  0.30420000  1.0 -0.3020327212
C  C25  1  0.61580000  0.90520000  0.69580000  1.0 -0.3020327212
C  C26  1  0.28940000  0.38420000  0.30420000  1.0 -0.3020327212
C  C27  1  0.09650000  0.71190000  0.79800000  1.0 0.0742112948
C  C28  1  0.61540000  0.90350000  0.20200000  1.0 0.0742112948
C  C29  1  0.28810000  0.38460000  0.79800000  1.0 0.0742112948
C  C30  1  0.09650000  0.71190000  0.20200000  1.0 0.0742112948
C  C31  1  0.61540000  0.90350000  0.79800000  1.0 0.0742112948
C  C32  1  0.28810000  0.38460000  0.20200000  1.0 0.0742112948
C  C33  1  0.25410000  0.86000000  0.53330000  1.0 -0.0704957144
C  C34  1  0.60590000  0.74590000  0.46670000  1.0 -0.0704957144
C  C35  1  0.14000000  0.39410000  0.53330000  1.0 -0.0704957144
C  C36  1  0.25410000  0.86000000  0.46670000  1.0 -0.0704957144
C  C37  1  0.60590000  0.74590000  0.53330000  1.0 -0.0704957144
C  C38  1  0.14000000  0.39410000  0.46670000  1.0 -0.0704957144
C  C39  1  0.12320000  0.86100000  0.53330000  1.0 -0.0704957144
C  C40  1  0.73780000  0.87680000  0.46670000  1.0 -0.0704957144
C  C41  1  0.13900000  0.26220000  0.53330000  1.0 -0.0704957144
C  C42  1  0.12320000  0.86100000  0.46670000  1.0 -0.0704957144
C  C43  1  0.73780000  0.87680000  0.53330000  1.0 -0.0704957144
C  C44  1  0.13900000  0.26220000  0.46670000  1.0 -0.0704957144
N  N1  1  0.18610000  0.85390000  0.85080000  1.0 -0.2129874052
N  N2  1  0.66780000  0.81390000  0.14920000  1.0 -0.2129874052
N  N3  1  0.14610000  0.33220000  0.85080000  1.0 -0.2129874052
N  N4  1  0.18610000  0.85390000  0.14920000  1.0 -0.2129874052
N  N5  1  0.66780000  0.81390000  0.85080000  1.0 -0.2129874052
N  N6  1  0.14610000  0.33220000  0.14920000  1.0 -0.2129874052
O  O1  1  0.18540000  0.64360000  0.00000000  1.0 -0.6230631889
O  O2  1  0.45820000  0.81460000  0.00000000  1.0 -0.6230631889
O  O3  1  0.35640000  0.54180000  0.00000000  1.0 -0.6230631889
O  O4  1  0.89110000  0.84330000  0.00000000  1.0 -0.6274622502
O  O5  1  0.95220000  0.10890000  0.00000000  1.0 -0.6274622502
O  O6  1  0.15670000  0.04780000  0.00000000  1.0 -0.6274622502
