# DDEC6 charges by PACMAN v1.1 (https://github.com/mtap-research/PACMAN-charge/)
data_XULGUI_FSR_pacman
_symmetry_space_group_name_H-M   'P 1'
_cell_length_a   10.82370000
_cell_length_b   12.18620000
_cell_length_c   12.24930000
_cell_angle_alpha   94.30100000
_cell_angle_beta   106.53000000
_cell_angle_gamma   101.28100000
_symmetry_Int_Tables_number   1
_chemical_formula_structural   DyH17C30(NO3)2
_chemical_formula_sum   'Dy2 H34 C60 N4 O12'
_cell_volume   1504.24023687
_cell_formula_units_Z   2
loop_
 _symmetry_equiv_pos_site_id
 _symmetry_equiv_pos_as_xyz
  1  'x, y, z'
loop_
 _atom_site_type_symbol
 _atom_site_label
 _atom_site_symmetry_multiplicity
 _atom_site_fract_x
 _atom_site_fract_y
 _atom_site_fract_z
 _atom_site_occupancy
 _atom_site_charge
Dy  Dy1  1  0.08325000  0.30978000  0.49819000  1.0 1.9032724173
Dy  Dy2  1  0.91675000  0.69022000  0.50181000  1.0 1.9032724173
H  H1  1  0.28730000  0.56820000  0.52300000  1.0 0.1110991789
H  H2  1  0.71270000  0.43180000  0.47700000  1.0 0.1110991789
H  H3  1  0.50100000  0.67130000  0.59520000  1.0 0.1287111128
H  H4  1  0.49900000  0.32870000  0.40480000  1.0 0.1287111128
H  H5  1  0.66490000  0.59120000  0.69710000  1.0 0.1287111128
H  H6  1  0.33510000  0.40880000  0.30290000  1.0 0.1287111128
H  H7  1  0.12000000  0.06920000  0.61510000  1.0 0.1204908256
H  H8  1  0.88000000  0.93080000  0.38490000  1.0 0.1204908256
H  H9  1  0.26870000  0.97750000  0.72060000  1.0 0.1363901989
H  H10  1  0.73130000  0.02250000  0.27940000  1.0 0.1363901989
H  H11  1  0.48740000  0.06360000  0.78760000  1.0 0.1204908256
H  H12  1  0.51260000  0.93640000  0.21240000  1.0 0.1204908256
H  H13  1  0.66750000  0.23750000  0.80670000  1.0 0.1287111128
H  H14  1  0.33250000  0.76250000  0.19330000  1.0 0.1287111128
H  H15  1  0.72630000  0.41950000  0.78130000  1.0 0.1204908256
H  H16  1  0.27370000  0.58050000  0.21870000  1.0 0.1204908256
H  H17  1  0.25630000  0.19820000  0.18450000  1.0 0.1204908256
H  H18  1  0.74370000  0.80180000  0.81550000  1.0 0.1204908256
H  H19  1  0.89480000  0.03320000  0.16460000  1.0 0.1204908256
H  H20  1  0.10520000  0.96680000  0.83540000  1.0 0.1204908256
H  H21  1  0.76210000  0.89520000  0.99020000  1.0 0.1204908256
H  H22  1  0.23790000  0.10480000  0.00980000  1.0 0.1204908256
H  H23  1  0.02360000  0.31500000  0.78700000  1.0 0.1287111128
H  H24  1  0.97640000  0.68500000  0.21300000  1.0 0.1287111128
H  H25  1  0.98440000  0.63190000  0.83650000  1.0 0.1204908256
H  H26  1  0.01560000  0.36810000  0.16350000  1.0 0.1204908256
H  H27  1  0.97910000  0.70920000  0.02830000  1.0 0.1204908256
H  H28  1  0.02090000  0.29080000  0.97170000  1.0 0.1204908256
H  H29  1  0.60170000  0.16990000  0.41180000  1.0 0.1204908256
H  H30  1  0.39830000  0.83010000  0.58820000  1.0 0.1204908256
H  H31  1  0.82180000  0.03960000  0.66320000  1.0 0.1204908256
H  H32  1  0.17820000  0.96040000  0.33680000  1.0 0.1204908256
H  H33  1  0.64070000  0.91620000  0.67230000  1.0 0.1110991789
H  H34  1  0.35930000  0.08380000  0.32770000  1.0 0.1110991789
C  C1  1  0.35150000  0.53390000  0.56510000  1.0 0.1110991789
C  C2  1  0.64850000  0.46610000  0.43490000  1.0 0.1110991789
C  C3  1  0.48070000  0.59670000  0.60820000  1.0 -0.1394480495
C  C4  1  0.51930000  0.40330000  0.39180000  1.0 -0.1394480495
C  C5  1  0.57780000  0.54990000  0.66910000  1.0 -0.0851491569
C  C6  1  0.42220000  0.45010000  0.33090000  1.0 -0.0851491569
C  C7  1  0.54360000  0.43750000  0.68910000  1.0 0.044644406
C  C8  1  0.45640000  0.56250000  0.31090000  1.0 0.044644406
C  C9  1  0.41060000  0.37890000  0.64370000  1.0 0.1204908256
C  C10  1  0.58940000  0.62110000  0.35630000  1.0 0.1204908256
C  C11  1  0.37220000  0.26380000  0.66350000  1.0 0.1363901989
C  C12  1  0.62780000  0.73620000  0.33650000  1.0 0.1363901989
C  C13  1  0.20860000  0.10650000  0.64360000  1.0 0.1110991789
C  C14  1  0.79140000  0.89350000  0.35640000  1.0 0.1110991789
C  C15  1  0.29780000  0.05050000  0.70640000  1.0 -0.1315924554
C  C16  1  0.70220000  0.94950000  0.29360000  1.0 -0.1315924554
C  C17  1  0.42660000  0.10170000  0.74680000  1.0 -0.097130443
C  C18  1  0.57340000  0.89830000  0.25320000  1.0 -0.097130443
C  C19  1  0.46980000  0.21340000  0.72740000  1.0 0.044644406
C  C20  1  0.53020000  0.78660000  0.27260000  1.0 0.044644406
C  C21  1  0.60300000  0.27320000  0.76790000  1.0 -0.1394480495
C  C22  1  0.39700000  0.72680000  0.23210000  1.0 -0.1394480495
C  C23  1  0.63810000  0.38100000  0.75140000  1.0 -0.1394480495
C  C24  1  0.36190000  0.61900000  0.24860000  1.0 -0.1394480495
C  C25  1  0.08770000  0.18110000  0.30580000  1.0 0.5498060854
C  C26  1  0.91230000  0.81890000  0.69420000  1.0 0.5498060854
C  C27  1  0.07570000  0.12320000  0.19100000  1.0 -0.0199752292
C  C28  1  0.92430000  0.87680000  0.80900000  1.0 -0.0199752292
C  C29  1  0.17900000  0.14530000  0.14450000  1.0 -0.1114756922
C  C30  1  0.82100000  0.85470000  0.85550000  1.0 -0.1114756922
C  C31  1  0.96360000  0.04780000  0.13260000  1.0 -0.15087222
C  C32  1  0.03640000  0.95220000  0.86740000  1.0 -0.15087222
C  C33  1  0.94790000  0.98920000  0.02170000  1.0 0.0781635204
C  C34  1  0.05210000  0.01080000  0.97830000  1.0 0.0781635204
C  C35  1  0.83230000  0.91020000  0.95980000  1.0 -0.15087222
C  C36  1  0.16770000  0.08980000  0.04020000  1.0 -0.15087222
C  C37  1  0.00970000  0.49470000  0.67600000  1.0 0.6635908158
C  C38  1  0.99030000  0.50530000  0.32400000  1.0 0.6635908158
C  C39  1  0.00620000  0.47860000  0.79770000  1.0 -0.0199752292
C  C40  1  0.99380000  0.52140000  0.20230000  1.0 -0.0199752292
C  C41  1  0.01620000  0.37410000  0.83560000  1.0 -0.1114756922
C  C42  1  0.98380000  0.62590000  0.16440000  1.0 -0.1114756922
C  C43  1  0.99380000  0.56440000  0.86500000  1.0 -0.15087222
C  C44  1  0.00620000  0.43560000  0.13500000  1.0 -0.15087222
C  C45  1  0.99490000  0.55310000  0.98160000  1.0 0.0714860251
C  C46  1  0.00510000  0.44690000  0.01840000  1.0 0.0714860251
C  C47  1  0.98500000  0.63990000  0.05400000  1.0 -0.15087222
C  C48  1  0.01500000  0.36010000  0.94600000  1.0 -0.15087222
C  C49  1  0.85020000  0.19440000  0.52970000  1.0 0.5582407386
C  C50  1  0.14980000  0.80560000  0.47030000  1.0 0.5582407386
C  C51  1  0.72980000  0.11740000  0.53520000  1.0 -0.0256245984
C  C52  1  0.27020000  0.88260000  0.46480000  1.0 -0.0256245984
C  C53  1  0.60850000  0.11690000  0.46280000  1.0 -0.1638350813
C  C54  1  0.39150000  0.88310000  0.53720000  1.0 -0.1638350813
C  C55  1  0.49400000  0.04060000  0.46160000  1.0 0.0714860251
C  C56  1  0.50600000  0.95940000  0.53840000  1.0 0.0714860251
C  C57  1  0.73940000  0.03980000  0.61290000  1.0 -0.097130443
C  C58  1  0.26060000  0.96020000  0.38710000  1.0 -0.097130443
C  C59  1  0.63190000  0.96490000  0.61710000  1.0 -0.15087222
C  C60  1  0.36810000  0.03510000  0.38290000  1.0 -0.15087222
N  N1  1  0.24360000  0.21150000  0.62210000  1.0 -0.3695122032
N  N2  1  0.75640000  0.78850000  0.37790000  1.0 -0.3695122032
N  N3  1  0.31500000  0.42770000  0.58090000  1.0 -0.3770715027
N  N4  1  0.68500000  0.57230000  0.41910000  1.0 -0.3770715027
O  O1  1  0.06890000  0.43470000  0.63480000  1.0 -0.6375642149
O  O2  1  0.93110000  0.56530000  0.36520000  1.0 -0.6375642149
O  O3  1  0.96120000  0.18240000  0.58680000  1.0 -0.6238378464
O  O4  1  0.03880000  0.81760000  0.41320000  1.0 -0.6238378464
O  O5  1  0.84260000  0.26860000  0.46140000  1.0 -0.6127861319
O  O6  1  0.15740000  0.73140000  0.53860000  1.0 -0.6127861319
O  O7  1  0.99210000  0.16150000  0.34640000  1.0 -0.6127861319
O  O8  1  0.00790000  0.83850000  0.65360000  1.0 -0.6127861319
O  O9  1  0.19210000  0.25170000  0.36290000  1.0 -0.6238378464
O  O10  1  0.80790000  0.74830000  0.63710000  1.0 -0.6238378464
O  O11  1  0.95440000  0.56610000  0.62790000  1.0 -0.6492899387
O  O12  1  0.04560000  0.43390000  0.37210000  1.0 -0.6492899387
