# DDEC6 charges by PACMAN v1.1 (https://github.com/mtap-research/PACMAN-charge/)
data_XULRED_ASR_pacman
_symmetry_space_group_name_H-M   'P 1'
_cell_length_a   9.21530000
_cell_length_b   11.13280000
_cell_length_c   15.26840000
_cell_angle_alpha   109.72200000
_cell_angle_beta   83.97300000
_cell_angle_gamma   108.66400000
_symmetry_Int_Tables_number   1
_chemical_formula_structural   Zn3P3H16C18N5O11
_chemical_formula_sum   'Zn6 P6 H32 C36 N10 O22'
_cell_volume   1396.98141286
_cell_formula_units_Z   2
loop_
 _symmetry_equiv_pos_site_id
 _symmetry_equiv_pos_as_xyz
  1  'x, y, z'
loop_
 _atom_site_type_symbol
 _atom_site_label
 _atom_site_symmetry_multiplicity
 _atom_site_fract_x
 _atom_site_fract_y
 _atom_site_fract_z
 _atom_site_occupancy
 _atom_site_charge
Zn  Zn1  1  0.31194000  0.74919000  0.25375000  1.0 0.8533372774
Zn  Zn2  1  0.68806000  0.25081000  0.74625000  1.0 0.8533372774
Zn  Zn3  1  0.50991000  0.47112000  0.35020000  1.0 0.8533372774
Zn  Zn4  1  0.49009000  0.52888000  0.64980000  1.0 0.8533372774
Zn  Zn5  1  0.85513000  0.81390000  0.48782000  1.0 0.9064627185
Zn  Zn6  1  0.14487000  0.18610000  0.51218000  1.0 0.9064627185
P  P1  1  0.60176000  0.76324000  0.34441000  1.0 1.2257473662
P  P2  1  0.39824000  0.23676000  0.65559000  1.0 1.2257473662
P  P3  1  0.75360000  0.51760000  0.49778000  1.0 0.8402516439
P  P4  1  0.24640000  0.48240000  0.50222000  1.0 0.8402516439
P  P5  1  0.08044000  0.91720000  0.34094000  1.0 1.0950683548
P  P6  1  0.91956000  0.08280000  0.65906000  1.0 1.0943486883
H  H1  1  0.69050000  0.82010000  0.27420000  1.0 -0.1510307521
H  H2  1  0.30950000  0.17990000  0.72580000  1.0 -0.1510307521
H  H3  1  0.85550000  0.45150000  0.49090000  1.0 -0.1510307521
H  H4  1  0.14450000  0.54850000  0.50910000  1.0 -0.1510307521
H  H5  1  0.96440000  0.89050000  0.29520000  1.0 -0.0942006588
H  H6  1  0.03560000  0.10950000  0.70480000  1.0 -0.0942006588
H  H7  1  0.02780000  0.59020000  0.32290000  1.0 0.1099229786
H  H8  1  0.97220000  0.40980000  0.67710000  1.0 0.1099229786
H  H9  1  0.85220000  0.37980000  0.27910000  1.0 0.1313874219
H  H10  1  0.14780000  0.62020000  0.72090000  1.0 0.1313874219
H  H11  1  0.28600000  0.48590000  0.10950000  1.0 0.1099229786
H  H12  1  0.71400000  0.51410000  0.89050000  1.0 0.1099229786
H  H13  1  0.12030000  0.27040000  0.05940000  1.0 0.1397152252
H  H14  1  0.87970000  0.72960000  0.94060000  1.0 0.1397152252
H  H15  1  0.74510000  0.79010000  0.72080000  1.0 0.1099229786
H  H16  1  0.25490000  0.20990000  0.27920000  1.0 0.1099229786
H  H17  1  0.82900000  0.95890000  0.85650000  1.0 0.1397152252
H  H18  1  0.17100000  0.04110000  0.14350000  1.0 0.1397152252
H  H19  1  0.38250000  0.61840000  0.84390000  1.0 0.1099229786
H  H20  1  0.61750000  0.38160000  0.15610000  1.0 0.1099229786
H  H21  1  0.45940000  0.78530000  0.98560000  1.0 0.1397152252
H  H22  1  0.54060000  0.21470000  0.01440000  1.0 0.1397152252
H  H23  1  0.42220000  0.08360000  0.41450000  1.0 0.1313874219
H  H24  1  0.57780000  0.91640000  0.58550000  1.0 0.1313874219
H  H25  1  0.47870000  0.05010000  0.26070000  1.0 0.1397152252
H  H26  1  0.52130000  0.94990000  0.73930000  1.0 0.1397152252
H  H27  1  0.85800000  0.21440000  0.47750000  1.0 0.1099229786
H  H28  1  0.14200000  0.78560000  0.52250000  1.0 0.1099229786
H  H29  1  0.92650000  0.18110000  0.32370000  1.0 0.1313874219
H  H30  1  0.07350000  0.81890000  0.67630000  1.0 0.1313874219
H  H31  1  0.63990000  0.17280000  0.51970000  1.0 0.2888215824
H  H32  1  0.36010000  0.82720000  0.48030000  1.0 0.2888215824
C  C1  1  0.04460000  0.52590000  0.26880000  1.0 0.0998150862
C  C2  1  0.95540000  0.47410000  0.73120000  1.0 0.0998150862
C  C3  1  0.93890000  0.39930000  0.24310000  1.0 -0.1874696717
C  C4  1  0.06110000  0.60070000  0.75690000  1.0 -0.1874696717
C  C5  1  0.19680000  0.46390000  0.14300000  1.0 0.0737685009
C  C6  1  0.80320000  0.53610000  0.85700000  1.0 0.0737685009
C  C7  1  0.09820000  0.33410000  0.11210000  1.0 -0.1787286655
C  C8  1  0.90180000  0.66590000  0.88790000  1.0 -0.1787286655
C  C9  1  0.96350000  0.30210000  0.16340000  1.0 0.1099229786
C  C10  1  0.03650000  0.69790000  0.83660000  1.0 0.1099229786
C  C11  1  0.68780000  0.78880000  0.77460000  1.0 0.0737685009
C  C12  1  0.31220000  0.21120000  0.22540000  1.0 0.0737685009
C  C13  1  0.73910000  0.89000000  0.85580000  1.0 -0.1692362346
C  C14  1  0.26090000  0.11000000  0.14420000  1.0 -0.1692362346
C  C15  1  0.47370000  0.68710000  0.84730000  1.0 0.081901089
C  C16  1  0.52630000  0.31290000  0.15270000  1.0 0.081901089
C  C17  1  0.51960000  0.78740000  0.93300000  1.0 -0.1692362346
C  C18  1  0.48040000  0.21260000  0.06700000  1.0 -0.1692362346
C  C19  1  0.65540000  0.88950000  0.93850000  1.0 0.0622756848
C  C20  1  0.34460000  0.11050000  0.06150000  1.0 0.0622756848
C  C21  1  0.52370000  0.10390000  0.39510000  1.0 0.0998150862
C  C22  1  0.47630000  0.89610000  0.60490000  1.0 0.0998150862
C  C23  1  0.55750000  0.08420000  0.30410000  1.0 -0.1874696717
C  C24  1  0.44250000  0.91580000  0.69590000  1.0 -0.1874696717
C  C25  1  0.78240000  0.18100000  0.43220000  1.0 0.081901089
C  C26  1  0.21760000  0.81900000  0.56780000  1.0 0.081901089
C  C27  1  0.82390000  0.16230000  0.34110000  1.0 -0.1993486986
C  C28  1  0.17610000  0.83770000  0.65890000  1.0 -0.1993486986
C  C29  1  0.70750000  0.11400000  0.27470000  1.0 0.1099229786
C  C30  1  0.29250000  0.88600000  0.72530000  1.0 0.1099229786
C  C31  1  0.84910000  0.16750000  0.12770000  1.0 0.0622756848
C  C32  1  0.15090000  0.83250000  0.87230000  1.0 0.0622756848
C  C33  1  0.71340000  0.99070000  0.02620000  1.0 0.2657622292
C  C34  1  0.28660000  0.00930000  0.97380000  1.0 0.2657622292
C  C35  1  0.74120000  0.09220000  0.17420000  1.0 0.0622756848
C  C36  1  0.25880000  0.90780000  0.82580000  1.0 0.0622756848
N  N1  1  0.17010000  0.55930000  0.21870000  1.0 -0.2517712817
N  N2  1  0.82990000  0.44070000  0.78130000  1.0 -0.2517712817
N  N3  1  0.55820000  0.68760000  0.76940000  1.0 -0.2776551948
N  N4  1  0.44180000  0.31240000  0.23060000  1.0 -0.2776551948
N  N5  1  0.63720000  0.15270000  0.45700000  1.0 -0.1288523816
N  N6  1  0.36280000  0.84730000  0.54300000  1.0 -0.1288523816
N  N7  1  0.83430000  0.10360000  0.03590000  1.0 -0.3941173509
N  N8  1  0.16570000  0.89640000  0.96410000  1.0 -0.3941173509
N  N9  1  0.65460000  0.98250000  0.10990000  1.0 -0.3990147219
N  N10  1  0.34540000  0.01750000  0.89010000  1.0 -0.3990147219
O  O1  1  0.44520000  0.78780000  0.35580000  1.0 -0.7390028194
O  O2  1  0.55480000  0.21220000  0.64420000  1.0 -0.7390028194
O  O3  1  0.59280000  0.61720000  0.30020000  1.0 -0.7390028194
O  O4  1  0.40720000  0.38280000  0.69980000  1.0 -0.7390028194
O  O5  1  0.68450000  0.82990000  0.43460000  1.0 -0.7390028194
O  O6  1  0.31550000  0.17010000  0.56540000  1.0 -0.7390028194
O  O7  1  0.65980000  0.44230000  0.41060000  1.0 -0.6791694269
O  O8  1  0.34020000  0.55770000  0.58940000  1.0 -0.6791694269
O  O9  1  0.67800000  0.55510000  0.59040000  1.0 -0.160059701
O  O10  1  0.32200000  0.44490000  0.40960000  1.0 -0.160059701
O  O11  1  0.87070000  0.63690000  0.47710000  1.0 -0.2212537632
O  O12  1  0.12930000  0.36310000  0.52290000  1.0 -0.2212537632
O  O13  1  0.03230000  0.83860000  0.40670000  1.0 -0.7390028194
O  O14  1  0.96770000  0.16140000  0.59330000  1.0 -0.7390028194
O  O15  1  0.20540000  0.87890000  0.27690000  1.0 -0.7202097779
O  O16  1  0.79460000  0.12110000  0.72310000  1.0 -0.7202097779
O  O17  1  0.11940000  0.06790000  0.38670000  1.0 -0.7202097779
O  O18  1  0.88060000  0.93210000  0.61330000  1.0 -0.7252635763
O  O19  1  0.65920000  0.46920000  0.57240000  1.0 -0.2212537632
O  O20  1  0.34080000  0.53080000  0.42760000  1.0 -0.2212537632
O  O21  1  0.83060000  0.66370000  0.53000000  1.0 -0.1288523816
O  O22  1  0.16940000  0.33630000  0.47000000  1.0 -0.1288523816
