# DDEC6 charges by PACMAN v1.1 (https://github.com/mtap-research/PACMAN-charge/)
data_XUMFIV_ASR_pacman
_symmetry_space_group_name_H-M   'P 1'
_cell_length_a   11.40600000
_cell_length_b   12.45300000
_cell_length_c   14.18970000
_cell_angle_alpha   106.71100000
_cell_angle_beta   109.26500000
_cell_angle_gamma   108.21400000
_symmetry_Int_Tables_number   1
_chemical_formula_structural   Cu3H32C42S8(N5O4)2
_chemical_formula_sum   'Cu3 H32 C42 S8 N10 O8'
_cell_volume   1626.75554186
_cell_formula_units_Z   1
loop_
 _symmetry_equiv_pos_site_id
 _symmetry_equiv_pos_as_xyz
  1  'x, y, z'
loop_
 _atom_site_type_symbol
 _atom_site_label
 _atom_site_symmetry_multiplicity
 _atom_site_fract_x
 _atom_site_fract_y
 _atom_site_fract_z
 _atom_site_occupancy
 _atom_site_charge
Cu  Cu1  1  0.00000000  0.00000000  0.50000000  1.0 0.6766064345
Cu  Cu2  1  0.50000000  0.00000000  0.00000000  1.0 0.6993445634
Cu  Cu3  1  0.50000000  0.50000000  0.00000000  1.0 0.6993445634
H  H1  1  0.00130000  0.75350000  0.46800000  1.0 0.1081999316
H  H2  1  0.99870000  0.24650000  0.53200000  1.0 0.1081999316
H  H3  1  0.86980000  0.55860000  0.45300000  1.0 0.1392680163
H  H4  1  0.13020000  0.44140000  0.54700000  1.0 0.1392680163
H  H5  1  0.57010000  0.66760000  0.45290000  1.0 0.1392680163
H  H6  1  0.42990000  0.33240000  0.54710000  1.0 0.1392680163
H  H7  1  0.71570000  0.86220000  0.47520000  1.0 0.1210830408
H  H8  1  0.28430000  0.13780000  0.52480000  1.0 0.1210830408
H  H9  1  0.61520000  0.27310000  0.10190000  1.0 0.1281805157
H  H10  1  0.38480000  0.72690000  0.89810000  1.0 0.1281805157
H  H11  1  0.66070000  0.44090000  0.25720000  1.0 0.1392680163
H  H12  1  0.33930000  0.55910000  0.74280000  1.0 0.1392680163
H  H13  1  0.49050000  0.18960000  0.35980000  1.0 0.1461865931
H  H14  1  0.50950000  0.81040000  0.64020000  1.0 0.1461865931
H  H15  1  0.45200000  0.03040000  0.20440000  1.0 0.1281805157
H  H16  1  0.54800000  0.96960000  0.79560000  1.0 0.1281805157
H  H17  1  0.74280000  0.13990000  0.95960000  1.0 0.1281805157
H  H18  1  0.25720000  0.86010000  0.04040000  1.0 0.1281805157
H  H19  1  0.97990000  0.21910000  0.03840000  1.0 0.1392680163
H  H20  1  0.02010000  0.78090000  0.96160000  1.0 0.1392680163
H  H21  1  0.96880000  0.09100000  0.26880000  1.0 0.1392680163
H  H22  1  0.03120000  0.90900000  0.73120000  1.0 0.1392680163
H  H23  1  0.72890000  0.01910000  0.18530000  1.0 0.1281805157
H  H24  1  0.27110000  0.98090000  0.81470000  1.0 0.1281805157
H  H25  1  0.30060000  0.23780000  0.94500000  1.0 0.1210830408
H  H26  1  0.69940000  0.76220000  0.05500000  1.0 0.1210830408
H  H27  1  0.18710000  0.13620000  0.02660000  1.0 0.1392680163
H  H28  1  0.81290000  0.86380000  0.97340000  1.0 0.1392680163
H  H29  1  0.33030000  0.47530000  0.27710000  1.0 0.1281805157
H  H30  1  0.66970000  0.52470000  0.72290000  1.0 0.1281805157
H  H31  1  0.44400000  0.56670000  0.19260000  1.0 0.1210830408
H  H32  1  0.55600000  0.43330000  0.80740000  1.0 0.1210830408
C  C1  1  0.91320000  0.73590000  0.46640000  1.0 0.1081999316
C  C2  1  0.08680000  0.26410000  0.53360000  1.0 0.1081999316
C  C3  1  0.83540000  0.61920000  0.45630000  1.0 -0.1981902182
C  C4  1  0.16460000  0.38080000  0.54370000  1.0 -0.1981902182
C  C5  1  0.70370000  0.59290000  0.45100000  1.0 0.1081999316
C  C6  1  0.29630000  0.40710000  0.54900000  1.0 0.1081999316
C  C7  1  0.65920000  0.68330000  0.45710000  1.0 -0.1887060275
C  C8  1  0.34080000  0.31670000  0.54290000  1.0 -0.1887060275
C  C9  1  0.74640000  0.79900000  0.46960000  1.0 0.1210830408
C  C10  1  0.25360000  0.20100000  0.53040000  1.0 0.1210830408
C  C11  1  0.59060000  0.25620000  0.15570000  1.0 0.1081999316
C  C12  1  0.40940000  0.74380000  0.84430000  1.0 0.1081999316
C  C13  1  0.61810000  0.35710000  0.24790000  1.0 -0.1887060275
C  C14  1  0.38190000  0.64290000  0.75210000  1.0 -0.1887060275
C  C15  1  0.58180000  0.33210000  0.32630000  1.0 0.1007992804
C  C16  1  0.41820000  0.66790000  0.67370000  1.0 0.1007992804
C  C17  1  0.51820000  0.20890000  0.30810000  1.0 -0.1981902182
C  C18  1  0.48180000  0.79110000  0.69190000  1.0 -0.1981902182
C  C19  1  0.49520000  0.11470000  0.21530000  1.0 0.0903960806
C  C20  1  0.50480000  0.88530000  0.78470000  1.0 0.0903960806
C  C21  1  0.78920000  0.13050000  0.02360000  1.0 0.0903960806
C  C22  1  0.21080000  0.86950000  0.97640000  1.0 0.0903960806
C  C23  1  0.93020000  0.17740000  0.06970000  1.0 -0.1814225138
C  C24  1  0.06980000  0.82260000  0.93030000  1.0 -0.1814225138
C  C25  1  0.00070000  0.16440000  0.16220000  1.0 0.1007992804
C  C26  1  0.99930000  0.83560000  0.83780000  1.0 0.1007992804
C  C27  1  0.92420000  0.10290000  0.20580000  1.0 -0.1981902182
C  C28  1  0.07580000  0.89710000  0.79420000  1.0 -0.1981902182
C  C29  1  0.78090000  0.05940000  0.15460000  1.0 0.1007992804
C  C30  1  0.21910000  0.94060000  0.84540000  1.0 0.1007992804
C  C31  1  0.30850000  0.28630000  0.01410000  1.0 0.1081999316
C  C32  1  0.69150000  0.71370000  0.98590000  1.0 0.1081999316
C  C33  1  0.23970000  0.22500000  0.06200000  1.0 -0.1887060275
C  C34  1  0.76030000  0.77500000  0.93800000  1.0 -0.1887060275
C  C35  1  0.24910000  0.29490000  0.16160000  1.0 0.1007992804
C  C36  1  0.75090000  0.70510000  0.83840000  1.0 0.1007992804
C  C37  1  0.32480000  0.42460000  0.20990000  1.0 -0.1981902182
C  C38  1  0.67520000  0.57540000  0.79010000  1.0 -0.1981902182
C  C39  1  0.39100000  0.47790000  0.15850000  1.0 0.0903960806
C  C40  1  0.60900000  0.52210000  0.84150000  1.0 0.0903960806
C  C41  1  0.05950000  0.91080000  0.30250000  1.0 0.27844401
C  C42  1  0.94050000  0.08920000  0.69750000  1.0 0.27844401
S  S1  1  0.60052000  0.44775000  0.44447000  1.0 -0.011062417
S  S2  1  0.39948000  0.55225000  0.55553000  1.0 -0.011062417
S  S3  1  0.18243000  0.22337000  0.23622000  1.0 0.0222355538
S  S4  1  0.81757000  0.77663000  0.76378000  1.0 0.0222355538
S  S5  1  0.11410000  0.89320000  0.21090000  1.0 -0.3913440377
S  S6  1  0.88590000  0.10680000  0.78910000  1.0 -0.3913440377
S  S7  1  0.48771000  0.76969000  0.13092000  1.0 1.3952371656
S  S8  1  0.51229000  0.23031000  0.86908000  1.0 1.3952371656
N  N1  1  0.87100000  0.82490000  0.47410000  1.0 -0.1981902182
N  N2  1  0.12900000  0.17510000  0.52590000  1.0 -0.1981902182
N  N3  1  0.53120000  0.13630000  0.13850000  1.0 -0.2115880371
N  N4  1  0.46880000  0.86370000  0.86150000  1.0 -0.2115880371
N  N5  1  0.71170000  0.07100000  0.06420000  1.0 -0.2115880371
N  N6  1  0.28830000  0.92900000  0.93580000  1.0 -0.2115880371
N  N7  1  0.38530000  0.41110000  0.06170000  1.0 -0.2195928515
N  N8  1  0.61470000  0.58890000  0.93830000  1.0 -0.2195928515
N  N9  1  0.02000000  0.92490000  0.36790000  1.0 -0.4836719752
N  N10  1  0.98000000  0.07510000  0.63210000  1.0 -0.4836719752
O  O1  1  0.43270000  0.64780000  0.03610000  1.0 -0.7087081492
O  O2  1  0.56730000  0.35220000  0.96390000  1.0 -0.7087081492
O  O3  1  0.49760000  0.86790000  0.09260000  1.0 -0.7295440853
O  O4  1  0.50240000  0.13210000  0.90740000  1.0 -0.7295440853
O  O5  1  0.63010000  0.80040000  0.21150000  1.0 -0.6858088196
O  O6  1  0.36990000  0.19960000  0.78850000  1.0 -0.6858088196
O  O7  1  0.39730000  0.76350000  0.18340000  1.0 -0.664578867
O  O8  1  0.60270000  0.23650000  0.81660000  1.0 -0.664578867
