# DDEC6 charges by PACMAN v1.1 (https://github.com/mtap-research/PACMAN-charge/)
data_XUMMOJ_FSR_pacman
_symmetry_space_group_name_H-M   'P 1'
_cell_length_a   20.65800000
_cell_length_b   20.65800000
_cell_length_c   5.61170000
_cell_angle_alpha   90.00000000
_cell_angle_beta   90.00000000
_cell_angle_gamma   90.00000000
_symmetry_Int_Tables_number   1
_chemical_formula_structural   CuH28C36Br(N2O)4
_chemical_formula_sum   'Cu2 H56 C72 Br2 N16 O8'
_cell_volume   2394.80960808
_cell_formula_units_Z   2
loop_
 _symmetry_equiv_pos_site_id
 _symmetry_equiv_pos_as_xyz
  1  'x, y, z'
loop_
 _atom_site_type_symbol
 _atom_site_label
 _atom_site_symmetry_multiplicity
 _atom_site_fract_x
 _atom_site_fract_y
 _atom_site_fract_z
 _atom_site_occupancy
 _atom_site_charge
Cu  Cu1  1  0.00000000  0.50000000  0.21020000  1.0 0.5664872747
Cu  Cu2  1  0.50000000  0.00000000  0.78980000  1.0 0.5664872747
H  H1  1  0.03040000  0.38000000  0.93830000  1.0 0.1094693476
H  H2  1  0.88000000  0.46960000  0.93830000  1.0 0.1094693476
H  H3  1  0.96960000  0.62000000  0.93830000  1.0 0.1094693476
H  H4  1  0.12000000  0.53040000  0.93830000  1.0 0.1094693476
H  H5  1  0.46960000  0.12000000  0.06170000  1.0 0.1094693476
H  H6  1  0.62000000  0.03040000  0.06170000  1.0 0.1094693476
H  H7  1  0.53040000  0.88000000  0.06170000  1.0 0.1094693476
H  H8  1  0.38000000  0.96960000  0.06170000  1.0 0.1094693476
H  H9  1  0.00380000  0.27400000  0.92390000  1.0 0.1318554763
H  H10  1  0.77400000  0.49620000  0.92390000  1.0 0.1318554763
H  H11  1  0.99620000  0.72600000  0.92390000  1.0 0.1318554763
H  H12  1  0.22600000  0.50380000  0.92390000  1.0 0.1318554763
H  H13  1  0.49620000  0.22600000  0.07610000  1.0 0.1318554763
H  H14  1  0.72600000  0.00380000  0.07610000  1.0 0.1318554763
H  H15  1  0.50380000  0.77400000  0.07610000  1.0 0.1318554763
H  H16  1  0.27400000  0.99620000  0.07610000  1.0 0.1318554763
H  H17  1  0.92940000  0.23150000  0.19860000  1.0 0.1199988942
H  H18  1  0.73150000  0.57060000  0.19860000  1.0 0.1199988942
H  H19  1  0.07060000  0.76850000  0.19860000  1.0 0.1199988942
H  H20  1  0.26850000  0.42940000  0.19860000  1.0 0.1199988942
H  H21  1  0.57060000  0.26850000  0.80140000  1.0 0.1199988942
H  H22  1  0.76850000  0.92940000  0.80140000  1.0 0.1199988942
H  H23  1  0.42940000  0.73150000  0.80140000  1.0 0.1199988942
H  H24  1  0.23150000  0.07060000  0.80140000  1.0 0.1199988942
H  H25  1  0.91510000  0.40900000  0.47400000  1.0 0.1094693476
H  H26  1  0.90900000  0.58490000  0.47400000  1.0 0.1094693476
H  H27  1  0.08490000  0.59100000  0.47400000  1.0 0.1094693476
H  H28  1  0.09100000  0.41510000  0.47400000  1.0 0.1094693476
H  H29  1  0.58490000  0.09100000  0.52600000  1.0 0.1094693476
H  H30  1  0.59100000  0.91510000  0.52600000  1.0 0.1094693476
H  H31  1  0.41510000  0.90900000  0.52600000  1.0 0.1094693476
H  H32  1  0.40900000  0.08490000  0.52600000  1.0 0.1094693476
H  H33  1  0.87620000  0.24900000  0.56980000  1.0 0.2729081731
H  H34  1  0.74900000  0.62380000  0.56980000  1.0 0.2729081731
H  H35  1  0.12380000  0.75100000  0.56980000  1.0 0.2729081731
H  H36  1  0.25100000  0.37620000  0.56980000  1.0 0.2729081731
H  H37  1  0.62380000  0.25100000  0.43020000  1.0 0.2729081731
H  H38  1  0.75100000  0.87620000  0.43020000  1.0 0.2729081731
H  H39  1  0.37620000  0.74900000  0.43020000  1.0 0.2729081731
H  H40  1  0.24900000  0.12380000  0.43020000  1.0 0.2729081731
H  H41  1  0.78020000  0.35480000  0.08250000  1.0 0.1199988942
H  H42  1  0.85480000  0.71980000  0.08250000  1.0 0.1199988942
H  H43  1  0.21980000  0.64520000  0.08250000  1.0 0.1199988942
H  H44  1  0.14520000  0.28020000  0.08250000  1.0 0.1199988942
H  H45  1  0.71980000  0.14520000  0.91750000  1.0 0.1199988942
H  H46  1  0.64520000  0.78020000  0.91750000  1.0 0.1199988942
H  H47  1  0.28020000  0.85480000  0.91750000  1.0 0.1199988942
H  H48  1  0.35480000  0.21980000  0.91750000  1.0 0.1199988942
H  H49  1  0.78680000  0.20060000  0.65950000  1.0 0.1094693476
H  H50  1  0.70060000  0.71320000  0.65950000  1.0 0.1094693476
H  H51  1  0.21320000  0.79940000  0.65950000  1.0 0.1094693476
H  H52  1  0.29940000  0.28680000  0.65950000  1.0 0.1094693476
H  H53  1  0.71320000  0.29940000  0.34050000  1.0 0.1094693476
H  H54  1  0.79940000  0.78680000  0.34050000  1.0 0.1094693476
H  H55  1  0.28680000  0.70060000  0.34050000  1.0 0.1094693476
H  H56  1  0.20060000  0.21320000  0.34050000  1.0 0.1094693476
C  C1  1  0.00070000  0.36390000  0.04780000  1.0 0.0694272142
C  C2  1  0.86390000  0.49930000  0.04780000  1.0 0.0694272142
C  C3  1  0.99930000  0.63610000  0.04780000  1.0 0.0694272142
C  C4  1  0.13610000  0.50070000  0.04780000  1.0 0.0694272142
C  C5  1  0.49930000  0.13610000  0.95220000  1.0 0.0694272142
C  C6  1  0.63610000  0.00070000  0.95220000  1.0 0.0694272142
C  C7  1  0.50070000  0.86390000  0.95220000  1.0 0.0694272142
C  C8  1  0.36390000  0.99930000  0.95220000  1.0 0.0694272142
C  C9  1  0.98520000  0.30060000  0.03900000  1.0 -0.1295957401
C  C10  1  0.80060000  0.51480000  0.03900000  1.0 -0.1295957401
C  C11  1  0.01480000  0.69940000  0.03900000  1.0 -0.1295957401
C  C12  1  0.19940000  0.48520000  0.03900000  1.0 -0.1295957401
C  C13  1  0.51480000  0.19940000  0.96100000  1.0 -0.1295957401
C  C14  1  0.69940000  0.98520000  0.96100000  1.0 -0.1295957401
C  C15  1  0.48520000  0.80060000  0.96100000  1.0 -0.1295957401
C  C16  1  0.30060000  0.01480000  0.96100000  1.0 -0.1295957401
C  C17  1  0.94100000  0.27490000  0.20300000  1.0 -0.1660806466
C  C18  1  0.77490000  0.55900000  0.20300000  1.0 -0.1660806466
C  C19  1  0.05900000  0.72510000  0.20300000  1.0 -0.1660806466
C  C20  1  0.22510000  0.44100000  0.20300000  1.0 -0.1660806466
C  C21  1  0.55900000  0.22510000  0.79700000  1.0 -0.1660806466
C  C22  1  0.72510000  0.94100000  0.79700000  1.0 -0.1660806466
C  C23  1  0.44100000  0.77490000  0.79700000  1.0 -0.1660806466
C  C24  1  0.27490000  0.05900000  0.79700000  1.0 -0.1660806466
C  C25  1  0.91540000  0.31620000  0.36900000  1.0 0.1789665442
C  C26  1  0.81620000  0.58460000  0.36900000  1.0 0.1789665442
C  C27  1  0.08460000  0.68380000  0.36900000  1.0 0.1789665442
C  C28  1  0.18380000  0.41540000  0.36900000  1.0 0.1789665442
C  C29  1  0.58460000  0.18380000  0.63100000  1.0 0.1789665442
C  C30  1  0.68380000  0.91540000  0.63100000  1.0 0.1789665442
C  C31  1  0.41540000  0.81620000  0.63100000  1.0 0.1789665442
C  C32  1  0.31620000  0.08460000  0.63100000  1.0 0.1789665442
C  C33  1  0.93320000  0.38070000  0.36380000  1.0 -0.0260472846
C  C34  1  0.88070000  0.56680000  0.36380000  1.0 -0.0260472846
C  C35  1  0.06680000  0.61930000  0.36380000  1.0 -0.0260472846
C  C36  1  0.11930000  0.43320000  0.36380000  1.0 -0.0260472846
C  C37  1  0.56680000  0.11930000  0.63620000  1.0 -0.0260472846
C  C38  1  0.61930000  0.93320000  0.63620000  1.0 -0.0260472846
C  C39  1  0.43320000  0.88070000  0.63620000  1.0 -0.0260472846
C  C40  1  0.38070000  0.06680000  0.63620000  1.0 -0.0260472846
C  C41  1  0.83150000  0.32360000  0.68320000  1.0 0.4445056837
C  C42  1  0.82360000  0.66850000  0.68320000  1.0 0.4445056837
C  C43  1  0.16850000  0.67640000  0.68320000  1.0 0.4445056837
C  C44  1  0.17640000  0.33150000  0.68320000  1.0 0.4445056837
C  C45  1  0.66850000  0.17640000  0.31680000  1.0 0.4445056837
C  C46  1  0.67640000  0.83150000  0.31680000  1.0 0.4445056837
C  C47  1  0.33150000  0.82360000  0.31680000  1.0 0.4445056837
C  C48  1  0.32360000  0.16850000  0.31680000  1.0 0.4445056837
C  C49  1  0.78990000  0.28500000  0.84680000  1.0 -0.0350212458
C  C50  1  0.78500000  0.71010000  0.84680000  1.0 -0.0350212458
C  C51  1  0.21010000  0.71500000  0.84680000  1.0 -0.0350212458
C  C52  1  0.21500000  0.28990000  0.84680000  1.0 -0.0350212458
C  C53  1  0.71010000  0.21500000  0.15320000  1.0 -0.0350212458
C  C54  1  0.71500000  0.78990000  0.15320000  1.0 -0.0350212458
C  C55  1  0.28990000  0.78500000  0.15320000  1.0 -0.0350212458
C  C56  1  0.28500000  0.21010000  0.15320000  1.0 -0.0350212458
C  C57  1  0.76820000  0.31250000  0.04700000  1.0 -0.1002677124
C  C58  1  0.81250000  0.73180000  0.04700000  1.0 -0.1002677124
C  C59  1  0.23180000  0.68750000  0.04700000  1.0 -0.1002677124
C  C60  1  0.18750000  0.26820000  0.04700000  1.0 -0.1002677124
C  C61  1  0.73180000  0.18750000  0.95300000  1.0 -0.1002677124
C  C62  1  0.68750000  0.76820000  0.95300000  1.0 -0.1002677124
C  C63  1  0.26820000  0.81250000  0.95300000  1.0 -0.1002677124
C  C64  1  0.31250000  0.23180000  0.95300000  1.0 -0.1002677124
C  C65  1  0.77190000  0.22080000  0.79700000  1.0 -0.1623208303
C  C66  1  0.72080000  0.72810000  0.79700000  1.0 -0.1623208303
C  C67  1  0.22810000  0.77920000  0.79700000  1.0 -0.1623208303
C  C68  1  0.27920000  0.27190000  0.79700000  1.0 -0.1623208303
C  C69  1  0.72810000  0.27920000  0.20300000  1.0 -0.1623208303
C  C70  1  0.77920000  0.77190000  0.20300000  1.0 -0.1623208303
C  C71  1  0.27190000  0.72080000  0.20300000  1.0 -0.1623208303
C  C72  1  0.22080000  0.22810000  0.20300000  1.0 -0.1623208303
Br  Br1  1  0.00000000  0.50000000  0.70760000  1.0 -0.591724791
Br  Br2  1  0.50000000  0.00000000  0.29240000  1.0 -0.591724791
N  N1  1  0.97580000  0.40360000  0.20430000  1.0 -0.190764584
N  N2  1  0.90360000  0.52420000  0.20430000  1.0 -0.190764584
N  N3  1  0.02420000  0.59640000  0.20430000  1.0 -0.190764584
N  N4  1  0.09640000  0.47580000  0.20430000  1.0 -0.190764584
N  N5  1  0.52420000  0.09640000  0.79570000  1.0 -0.190764584
N  N6  1  0.59640000  0.97580000  0.79570000  1.0 -0.190764584
N  N7  1  0.47580000  0.90360000  0.79570000  1.0 -0.190764584
N  N8  1  0.40360000  0.02420000  0.79570000  1.0 -0.190764584
N  N9  1  0.87410000  0.29010000  0.54650000  1.0 -0.3806177754
N  N10  1  0.79010000  0.62590000  0.54650000  1.0 -0.3806177754
N  N11  1  0.12590000  0.70990000  0.54650000  1.0 -0.3806177754
N  N12  1  0.20990000  0.37410000  0.54650000  1.0 -0.3806177754
N  N13  1  0.62590000  0.20990000  0.45350000  1.0 -0.3806177754
N  N14  1  0.70990000  0.87410000  0.45350000  1.0 -0.3806177754
N  N15  1  0.37410000  0.79010000  0.45350000  1.0 -0.3806177754
N  N16  1  0.29010000  0.12590000  0.45350000  1.0 -0.3806177754
O  O1  1  0.82520000  0.38250000  0.67710000  1.0 -0.4690437246
O  O2  1  0.88250000  0.67480000  0.67710000  1.0 -0.4690437246
O  O3  1  0.17480000  0.61750000  0.67710000  1.0 -0.4690437246
O  O4  1  0.11750000  0.32520000  0.67710000  1.0 -0.4690437246
O  O5  1  0.67480000  0.11750000  0.32290000  1.0 -0.4690437246
O  O6  1  0.61750000  0.82520000  0.32290000  1.0 -0.4690437246
O  O7  1  0.32520000  0.88250000  0.32290000  1.0 -0.4690437246
O  O8  1  0.38250000  0.17480000  0.32290000  1.0 -0.4690437246
