# DDEC6 charges by PACMAN v1.1 (https://github.com/mtap-research/PACMAN-charge/)
data_XUNGUJ_FSR_pacman
_symmetry_space_group_name_H-M   'P 1'
_cell_length_a   5.40280000
_cell_length_b   13.91750000
_cell_length_c   11.37520000
_cell_angle_alpha   90.00000000
_cell_angle_beta   104.70700000
_cell_angle_gamma   90.00000000
_symmetry_Int_Tables_number   1
_chemical_formula_structural   LiH4C6NO2
_chemical_formula_sum   'Li4 H16 C24 N4 O8'
_cell_volume   827.31699995
_cell_formula_units_Z   4
loop_
 _symmetry_equiv_pos_site_id
 _symmetry_equiv_pos_as_xyz
  1  'x, y, z'
loop_
 _atom_site_type_symbol
 _atom_site_label
 _atom_site_symmetry_multiplicity
 _atom_site_fract_x
 _atom_site_fract_y
 _atom_site_fract_z
 _atom_site_occupancy
 _atom_site_charge
Li  Li1  1  0.19650000  0.43420000  0.00890000  1.0 0.7645089041
Li  Li2  1  0.80350000  0.93420000  0.49110000  1.0 0.7645089041
Li  Li3  1  0.80350000  0.56580000  0.99110000  1.0 0.7645089041
Li  Li4  1  0.19650000  0.06580000  0.50890000  1.0 0.7645089041
H  H1  1  0.76690000  0.62680000  0.72430000  1.0 0.1312186878
H  H2  1  0.23310000  0.12680000  0.77570000  1.0 0.1312186878
H  H3  1  0.23310000  0.37320000  0.27570000  1.0 0.1312186878
H  H4  1  0.76690000  0.87320000  0.22430000  1.0 0.1312186878
H  H5  1  0.27370000  0.87730000  0.66820000  1.0 0.1006798336
H  H6  1  0.72630000  0.37730000  0.83180000  1.0 0.1006798336
H  H7  1  0.72630000  0.12270000  0.33180000  1.0 0.1006798336
H  H8  1  0.27370000  0.62270000  0.16820000  1.0 0.1006798336
H  H9  1  0.44590000  0.76240000  0.81020000  1.0 0.1215287607
H  H10  1  0.55410000  0.26240000  0.68980000  1.0 0.1215287607
H  H11  1  0.55410000  0.23760000  0.18980000  1.0 0.1215287607
H  H12  1  0.44590000  0.73760000  0.31020000  1.0 0.1215287607
H  H13  1  0.61920000  0.74470000  0.58290000  1.0 0.1006798336
H  H14  1  0.38080000  0.24470000  0.91710000  1.0 0.1006798336
H  H15  1  0.38080000  0.25530000  0.41710000  1.0 0.1006798336
H  H16  1  0.61920000  0.75530000  0.08290000  1.0 0.1006798336
C  C1  1  0.23890000  0.60311000  0.87480000  1.0 0.6179513345
C  C2  1  0.76110000  0.10311000  0.62520000  1.0 0.6179513345
C  C3  1  0.76110000  0.39689000  0.12520000  1.0 0.6179513345
C  C4  1  0.23890000  0.89689000  0.37480000  1.0 0.6179513345
C  C5  1  0.12590000  0.68116000  0.78440000  1.0 0.0244081292
C  C6  1  0.87410000  0.18116000  0.71560000  1.0 0.0244081292
C  C7  1  0.87410000  0.31884000  0.21560000  1.0 0.0250488009
C  C8  1  0.12590000  0.81884000  0.28440000  1.0 0.0250488009
C  C9  1  0.87410000  0.67680000  0.71440000  1.0 -0.1665659015
C  C10  1  0.12590000  0.17680000  0.78560000  1.0 -0.1665659015
C  C11  1  0.12590000  0.32320000  0.28560000  1.0 -0.1665659015
C  C12  1  0.87410000  0.82320000  0.21440000  1.0 -0.1665659015
C  C13  1  0.17120000  0.82614000  0.67930000  1.0 0.0786560412
C  C14  1  0.82880000  0.32614000  0.82070000  1.0 0.0786560412
C  C15  1  0.82880000  0.17386000  0.32070000  1.0 0.0786560412
C  C16  1  0.17120000  0.67386000  0.17930000  1.0 0.0786560412
C  C17  1  0.27640000  0.75745000  0.76550000  1.0 -0.1665659015
C  C18  1  0.72360000  0.25745000  0.73450000  1.0 -0.1665659015
C  C19  1  0.72360000  0.24255000  0.23450000  1.0 -0.1665659015
C  C20  1  0.27640000  0.74255000  0.26550000  1.0 -0.1665659015
C  C21  1  0.78710000  0.74841000  0.62980000  1.0 0.0786560412
C  C22  1  0.21290000  0.24841000  0.87020000  1.0 0.0786560412
C  C23  1  0.21290000  0.25159000  0.37020000  1.0 0.0786560412
C  C24  1  0.78710000  0.75159000  0.12980000  1.0 0.0786560412
N  N1  1  0.92960000  0.82273000  0.61120000  1.0 -0.3215749774
N  N2  1  0.07040000  0.32273000  0.88880000  1.0 -0.3215749774
N  N3  1  0.07040000  0.17727000  0.38880000  1.0 -0.3215749774
N  N4  1  0.92960000  0.67727000  0.11120000  1.0 -0.3215749774
O  O1  1  0.08702000  0.55057000  0.91302000  1.0 -0.7077171643
O  O2  1  0.91298000  0.05057000  0.58698000  1.0 -0.7077171643
O  O3  1  0.91298000  0.44943000  0.08698000  1.0 -0.7077171643
O  O4  1  0.08702000  0.94943000  0.41302000  1.0 -0.7077171643
O  O5  1  0.47627000  0.59703000  0.90417000  1.0 -0.656183957
O  O6  1  0.52373000  0.09703000  0.59583000  1.0 -0.656183957
O  O7  1  0.52373000  0.40297000  0.09583000  1.0 -0.656183957
O  O8  1  0.47627000  0.90297000  0.40417000  1.0 -0.656183957
