# DDEC6 charges by PACMAN v1.1 (https://github.com/mtap-research/PACMAN-charge/)
data_XUNGOD_FSR_pacman
_symmetry_space_group_name_H-M   'P 1'
_cell_length_a   5.39680000
_cell_length_b   11.48860000
_cell_length_c   13.42330000
_cell_angle_alpha   90.67000000
_cell_angle_beta   94.90000000
_cell_angle_gamma   91.23800000
_symmetry_Int_Tables_number   1
_chemical_formula_structural   LiH4C6NO2
_chemical_formula_sum   'Li4 H16 C24 N4 O8'
_cell_volume   828.95527201
_cell_formula_units_Z   4
loop_
 _symmetry_equiv_pos_site_id
 _symmetry_equiv_pos_as_xyz
  1  'x, y, z'
loop_
 _atom_site_type_symbol
 _atom_site_label
 _atom_site_symmetry_multiplicity
 _atom_site_fract_x
 _atom_site_fract_y
 _atom_site_fract_z
 _atom_site_occupancy
 _atom_site_charge
Li  Li1  1  0.31270000  0.01210000  0.06500000  1.0 0.7673395661
Li  Li2  1  0.68730000  0.98790000  0.93500000  1.0 0.7673395661
Li  Li3  1  0.69430000  0.51390000  0.44030000  1.0 0.7673395661
Li  Li4  1  0.30570000  0.48610000  0.55970000  1.0 0.7673395661
H  H1  1  0.93210000  0.81550000  0.34500000  1.0 0.1299957571
H  H2  1  0.06790000  0.18450000  0.65500000  1.0 0.1299957571
H  H3  1  0.00500000  0.95480000  0.23120000  1.0 0.0992886164
H  H4  1  0.99500000  0.04520000  0.76880000  1.0 0.0992886164
H  H5  1  0.58690000  0.79570000  0.15360000  1.0 0.0992886164
H  H6  1  0.41310000  0.20430000  0.84640000  1.0 0.0992886164
H  H7  1  0.54020000  0.65420000  0.27030000  1.0 0.1299957571
H  H8  1  0.45980000  0.34580000  0.72970000  1.0 0.1299957571
H  H9  1  0.44270000  0.26660000  0.13220000  1.0 0.1299957571
H  H10  1  0.55730000  0.73340000  0.86780000  1.0 0.1299957571
H  H11  1  0.40450000  0.40710000  0.25140000  1.0 0.0992886164
H  H12  1  0.59550000  0.59290000  0.74860000  1.0 0.0992886164
H  H13  1  0.04960000  0.33550000  0.38580000  1.0 0.1082708774
H  H14  1  0.95040000  0.66450000  0.61420000  1.0 0.1082708774
H  H15  1  0.11600000  0.19980000  0.26590000  1.0 0.1220685331
H  H16  1  0.88400000  0.80020000  0.73410000  1.0 0.1220685331
C  C1  1  0.17540000  0.62610000  0.39750000  1.0 0.6103415278
C  C2  1  0.82460000  0.37390000  0.60250000  1.0 0.6103415278
C  C3  1  0.22720000  0.71760000  0.32080000  1.0 0.0270498174
C  C4  1  0.77280000  0.28240000  0.67920000  1.0 0.0270498174
C  C5  1  0.06810000  0.80970000  0.30730000  1.0 -0.1645315202
C  C6  1  0.93190000  0.19030000  0.69270000  1.0 -0.1645315202
C  C7  1  0.11210000  0.89250000  0.23780000  1.0 0.0692706027
C  C8  1  0.88790000  0.10750000  0.76220000  1.0 0.0692706027
C  C9  1  0.45370000  0.80010000  0.19300000  1.0 0.0771765647
C  C10  1  0.54630000  0.19990000  0.80700000  1.0 0.0771765647
C  C11  1  0.42630000  0.71380000  0.26270000  1.0 -0.1666718932
C  C12  1  0.57370000  0.28620000  0.73730000  1.0 -0.1666718932
C  C13  1  0.83420000  0.12940000  0.10300000  1.0 0.6103415278
C  C14  1  0.16580000  0.87060000  0.89700000  1.0 0.6103415278
C  C15  1  0.78730000  0.21740000  0.18420000  1.0 0.0270498174
C  C16  1  0.21270000  0.78260000  0.81580000  1.0 0.0270498174
C  C17  1  0.57070000  0.28050000  0.18210000  1.0 -0.1645315202
C  C18  1  0.42930000  0.71950000  0.81790000  1.0 -0.1645315202
C  C19  1  0.54850000  0.36380000  0.25490000  1.0 0.0692706027
C  C20  1  0.45150000  0.63620000  0.74510000  1.0 0.0692706027
C  C21  1  0.92790000  0.32290000  0.33320000  1.0 0.0771765647
C  C22  1  0.07210000  0.67710000  0.66680000  1.0 0.0771765647
C  C23  1  0.96810000  0.24030000  0.26200000  1.0 -0.1666718932
C  C24  1  0.03190000  0.75970000  0.73800000  1.0 -0.1666718932
N  N1  1  0.30010000  0.88910000  0.17890000  1.0 -0.318927406
N  N2  1  0.69990000  0.11090000  0.82110000  1.0 -0.318927406
N  N3  1  0.72150000  0.38660000  0.33080000  1.0 -0.318927406
N  N4  1  0.27850000  0.61340000  0.66920000  1.0 -0.318927406
O  O1  1  0.96180000  0.62020000  0.42470000  1.0 -0.6442148897
O  O2  1  0.03820000  0.37980000  0.57530000  1.0 -0.6442148897
O  O3  1  0.35370000  0.56250000  0.42890000  1.0 -0.7170918795
O  O4  1  0.64630000  0.43750000  0.57110000  1.0 -0.7170918795
O  O5  1  0.05400000  0.11240000  0.08850000  1.0 -0.6464336725
O  O6  1  0.94600000  0.88760000  0.91150000  1.0 -0.6464336725
O  O7  1  0.64670000  0.07970000  0.05710000  1.0 -0.7125466081
O  O8  1  0.35330000  0.92030000  0.94290000  1.0 -0.7125466081
