# DDEC6 charges by PACMAN v1.1 (https://github.com/mtap-research/PACMAN-charge/)
data_XUNHAQ_FSR_pacman
_symmetry_space_group_name_H-M   'P 1'
_cell_length_a   5.47330000
_cell_length_b   13.45800000
_cell_length_c   11.73040000
_cell_angle_alpha   90.00000000
_cell_angle_beta   101.16600000
_cell_angle_gamma   90.00000000
_symmetry_Int_Tables_number   1
_chemical_formula_structural   LiH4C6NO2
_chemical_formula_sum   'Li4 H16 C24 N4 O8'
_cell_volume   847.70101312
_cell_formula_units_Z   4
loop_
 _symmetry_equiv_pos_site_id
 _symmetry_equiv_pos_as_xyz
  1  'x, y, z'
loop_
 _atom_site_type_symbol
 _atom_site_label
 _atom_site_symmetry_multiplicity
 _atom_site_fract_x
 _atom_site_fract_y
 _atom_site_fract_z
 _atom_site_occupancy
 _atom_site_charge
Li  Li1  1  0.92250000  0.01620000  0.73970000  1.0 0.7621713552
Li  Li2  1  0.07750000  0.51620000  0.26030000  1.0 0.7621713552
Li  Li3  1  0.55790000  0.15560000  0.76040000  1.0 0.7621713552
Li  Li4  1  0.44210000  0.65560000  0.23960000  1.0 0.7621713552
H  H1  1  0.39170000  0.34220000  0.94850000  1.0 0.1237322922
H  H2  1  0.60830000  0.84220000  0.05150000  1.0 0.1237322922
H  H3  1  0.38040000  0.45180000  0.09790000  1.0 0.098734093
H  H4  1  0.61960000  0.95180000  0.90210000  1.0 0.098734093
H  H5  1  0.79440000  0.32200000  0.17120000  1.0 0.098734093
H  H6  1  0.20560000  0.82200000  0.82880000  1.0 0.098734093
H  H7  1  0.78390000  0.20900000  0.02270000  1.0 0.132592735
H  H8  1  0.21610000  0.70900000  0.97730000  1.0 0.132592735
H  H9  1  0.90430000  0.32790000  0.45260000  1.0 0.1237322922
H  H10  1  0.09570000  0.82790000  0.54740000  1.0 0.1237322922
H  H11  1  0.87660000  0.21620000  0.59650000  1.0 0.1055474702
H  H12  1  0.12340000  0.71620000  0.40350000  1.0 0.1055474702
H  H13  1  0.29710000  0.46520000  0.52130000  1.0 0.132592735
H  H14  1  0.70290000  0.96520000  0.47870000  1.0 0.132592735
H  H15  1  0.29730000  0.35210000  0.66940000  1.0 0.098734093
H  H16  1  0.70270000  0.85210000  0.33060000  1.0 0.098734093
C  C1  1  0.09890000  0.18920000  0.87020000  1.0 0.6158812615
C  C2  1  0.90110000  0.68920000  0.12980000  1.0 0.6158812615
C  C3  1  0.08710000  0.26320000  0.96720000  1.0 0.0257871236
C  C4  1  0.91290000  0.76320000  0.03280000  1.0 0.0257871236
C  C5  1  0.26720000  0.33690000  0.99200000  1.0 -0.1648645875
C  C6  1  0.73280000  0.83690000  0.00800000  1.0 -0.1671243762
C  C7  1  0.25930000  0.40250000  0.08250000  1.0 0.0717444617
C  C8  1  0.74070000  0.90250000  0.91750000  1.0 0.0717444617
C  C9  1  0.91470000  0.32630000  0.12520000  1.0 0.077334595
C  C10  1  0.08530000  0.82630000  0.87480000  1.0 0.077334595
C  C11  1  0.90690000  0.25760000  0.03610000  1.0 -0.1671243762
C  C12  1  0.09310000  0.75760000  0.96390000  1.0 -0.1671243762
C  C13  1  0.62370000  0.48470000  0.37520000  1.0 0.6158812615
C  C14  1  0.37630000  0.98470000  0.62480000  1.0 0.6158812615
C  C15  1  0.60240000  0.40960000  0.46910000  1.0 0.0235828619
C  C16  1  0.39760000  0.90960000  0.53090000  1.0 0.0235828619
C  C17  1  0.77710000  0.33380000  0.49450000  1.0 -0.1671243762
C  C18  1  0.22290000  0.83380000  0.50550000  1.0 -0.1671243762
C  C19  1  0.76040000  0.26740000  0.58210000  1.0 0.0717444617
C  C20  1  0.23960000  0.76740000  0.41790000  1.0 0.0717444617
C  C21  1  0.41810000  0.41590000  0.53560000  1.0 -0.1671243762
C  C22  1  0.58190000  0.91590000  0.46440000  1.0 -0.1671243762
C  C23  1  0.41880000  0.34660000  0.62420000  1.0 0.077334595
C  C24  1  0.58120000  0.84660000  0.37580000  1.0 0.077334595
N  N1  1  0.08580000  0.39835000  0.14860000  1.0 -0.3235312876
N  N2  1  0.91420000  0.89835000  0.85140000  1.0 -0.3235312876
N  N3  1  0.58510000  0.27255000  0.64780000  1.0 -0.3235312876
N  N4  1  0.41490000  0.77255000  0.35220000  1.0 -0.3235312876
O  O1  1  0.90940000  0.13615000  0.83526000  1.0 -0.7065905657
O  O2  1  0.09060000  0.63615000  0.16474000  1.0 -0.7065905657
O  O3  1  0.29660000  0.18627000  0.83392000  1.0 -0.6476318118
O  O4  1  0.70340000  0.68627000  0.16608000  1.0 -0.6476318118
O  O5  1  0.43220000  0.53543000  0.33501000  1.0 -0.7065905657
O  O6  1  0.56780000  0.03543000  0.66499000  1.0 -0.7065905657
O  O7  1  0.82830000  0.49073000  0.34610000  1.0 -0.6427900073
O  O8  1  0.17170000  0.99073000  0.65390000  1.0 -0.6427900073
