# DDEC6 charges by PACMAN v1.1 (https://github.com/mtap-research/PACMAN-charge/)
data_XUNSAC_FSR_pacman
_symmetry_space_group_name_H-M   'P 1'
_cell_length_a   10.80930000
_cell_length_b   14.34760000
_cell_length_c   10.82430000
_cell_angle_alpha   90.00000000
_cell_angle_beta   103.55900000
_cell_angle_gamma   90.00000000
_symmetry_Int_Tables_number   1
_chemical_formula_structural   LiH4C6NO2
_chemical_formula_sum   'Li8 H32 C48 N8 O16'
_cell_volume   1631.92635886
_cell_formula_units_Z   8
loop_
 _symmetry_equiv_pos_site_id
 _symmetry_equiv_pos_as_xyz
  1  'x, y, z'
loop_
 _atom_site_type_symbol
 _atom_site_label
 _atom_site_symmetry_multiplicity
 _atom_site_fract_x
 _atom_site_fract_y
 _atom_site_fract_z
 _atom_site_occupancy
 _atom_site_charge
Li  Li1  1  0.53040000  0.51740000  0.25570000  1.0 0.7677959362
Li  Li2  1  0.46960000  0.01740000  0.74430000  1.0 0.7677959362
Li  Li3  1  0.72640000  0.64170000  0.25210000  1.0 0.7677959362
Li  Li4  1  0.27360000  0.14170000  0.74790000  1.0 0.7677959362
Li  Li5  1  0.02800000  0.51050000  0.26080000  1.0 0.7642241577
Li  Li6  1  0.97200000  0.01050000  0.73920000  1.0 0.7642241577
Li  Li7  1  0.21800000  0.63990000  0.23410000  1.0 0.7642241577
Li  Li8  1  0.78200000  0.13990000  0.76590000  1.0 0.7642241577
H  H1  1  0.31100000  0.95670000  0.92650000  1.0 0.1005573178
H  H2  1  0.68900000  0.45670000  0.07350000  1.0 0.1005573178
H  H3  1  0.92760000  0.20350000  0.59280000  1.0 0.1005573178
H  H4  1  0.07240000  0.70350000  0.40720000  1.0 0.1005573178
H  H5  1  0.94510000  0.32000000  0.45040000  1.0 0.1196199267
H  H6  1  0.05490000  0.82000000  0.54960000  1.0 0.1196199267
H  H7  1  0.82690000  0.84280000  0.07700000  1.0 0.1196199267
H  H8  1  0.17310000  0.34280000  0.92300000  1.0 0.1196199267
H  H9  1  0.84910000  0.95980000  0.93600000  1.0 0.1005573178
H  H10  1  0.15090000  0.45980000  0.06400000  1.0 0.1005573178
H  H11  1  0.09140000  0.69350000  0.95170000  1.0 0.1300973008
H  H12  1  0.90860000  0.19350000  0.04830000  1.0 0.1300973008
H  H13  1  0.38810000  0.18490000  0.53560000  1.0 0.1059772717
H  H14  1  0.61190000  0.68490000  0.46440000  1.0 0.1059772717
H  H15  1  0.09910000  0.81280000  0.80920000  1.0 0.1005573178
H  H16  1  0.90090000  0.31280000  0.19080000  1.0 0.1005573178
H  H17  1  0.14610000  0.33220000  0.67530000  1.0 0.092581016
H  H18  1  0.85390000  0.83220000  0.32470000  1.0 0.092581016
H  H19  1  0.15570000  0.45470000  0.53730000  1.0 0.1300973008
H  H20  1  0.84430000  0.95470000  0.46270000  1.0 0.1300973008
H  H21  1  0.41570000  0.30650000  0.40400000  1.0 0.1300973008
H  H22  1  0.58430000  0.80650000  0.59600000  1.0 0.1300973008
H  H23  1  0.29340000  0.83360000  0.06030000  1.0 0.1196199267
H  H24  1  0.70660000  0.33360000  0.93970000  1.0 0.1196199267
H  H25  1  0.62360000  0.32130000  0.66430000  1.0 0.1005573178
H  H26  1  0.37640000  0.82130000  0.33570000  1.0 0.1005573178
H  H27  1  0.62740000  0.85470000  0.86370000  1.0 0.092581016
H  H28  1  0.37260000  0.35470000  0.13630000  1.0 0.092581016
H  H29  1  0.62680000  0.43830000  0.51710000  1.0 0.1300973008
H  H30  1  0.37320000  0.93830000  0.48290000  1.0 0.1300973008
H  H31  1  0.62540000  0.73210000  0.00260000  1.0 0.1300973008
H  H32  1  0.37460000  0.23210000  0.99740000  1.0 0.1300973008
C  C1  1  0.37420000  0.90939000  0.94020000  1.0 0.0778879266
C  C2  1  0.62580000  0.40939000  0.05980000  1.0 0.0778879266
C  C3  1  0.86710000  0.25266000  0.57890000  1.0 0.0694859708
C  C4  1  0.13290000  0.75266000  0.42110000  1.0 0.0694859708
C  C5  1  0.87760000  0.32164000  0.49290000  1.0 -0.1627571971
C  C6  1  0.12240000  0.82164000  0.50710000  1.0 -0.1627571971
C  C7  1  0.95625000  0.75439000  0.02927000  1.0 0.0256801387
C  C8  1  0.04375000  0.25439000  0.97073000  1.0 0.0256801387
C  C9  1  0.94132000  0.67602000  0.11920000  1.0 0.6192558864
C  C10  1  0.05868000  0.17602000  0.88080000  1.0 0.6192558864
C  C11  1  0.28884000  0.39441000  0.45630000  1.0 0.0215429911
C  C12  1  0.71116000  0.89441000  0.54370000  1.0 0.0215429911
C  C13  1  0.88430000  0.83513000  0.02340000  1.0 -0.1676363936
C  C14  1  0.11570000  0.33513000  0.97660000  1.0 -0.1676363936
C  C15  1  0.89770000  0.90435000  0.93800000  1.0 0.0694859708
C  C16  1  0.10230000  0.40435000  0.06200000  1.0 0.0694859708
C  C17  1  0.03900000  0.74702000  0.94908000  1.0 -0.1627571971
C  C18  1  0.96100000  0.24702000  0.05092000  1.0 -0.1627571971
C  C19  1  0.30560000  0.47452000  0.37125000  1.0 0.6192558864
C  C20  1  0.69440000  0.97452000  0.62875000  1.0 0.6192558864
C  C21  1  0.34230000  0.24110000  0.53770000  1.0 0.0778879266
C  C22  1  0.65770000  0.74110000  0.46230000  1.0 0.0778879266
C  C23  1  0.80340000  0.47199000  0.38010000  1.0 0.6192558864
C  C24  1  0.19660000  0.97199000  0.61990000  1.0 0.6192558864
C  C25  1  0.04380000  0.81917000  0.86518000  1.0 0.0778879266
C  C26  1  0.95620000  0.31917000  0.13482000  1.0 0.0778879266
C  C27  1  0.19980000  0.32637000  0.61770000  1.0 0.0778879266
C  C28  1  0.80020000  0.82637000  0.38230000  1.0 0.0778879266
C  C29  1  0.20650000  0.40064000  0.53710000  1.0 -0.1676363936
C  C30  1  0.79350000  0.90064000  0.46290000  1.0 -0.1676363936
C  C31  1  0.35800000  0.31293000  0.45760000  1.0 -0.1627571971
C  C32  1  0.64200000  0.81293000  0.54240000  1.0 -0.1627571971
C  C33  1  0.36340000  0.83647000  0.02115000  1.0 -0.1627571971
C  C34  1  0.63660000  0.33647000  0.97885000  1.0 -0.1627571971
C  C35  1  0.78910000  0.39309000  0.46883000  1.0 0.0215429911
C  C36  1  0.21090000  0.89309000  0.53117000  1.0 0.0215429911
C  C37  1  0.68940000  0.32083000  0.61950000  1.0 0.0778879266
C  C38  1  0.31060000  0.82083000  0.38050000  1.0 0.0778879266
C  C39  1  0.44283000  0.68265000  0.12253000  1.0 0.6192558864
C  C40  1  0.55717000  0.18265000  0.87747000  1.0 0.6192558864
C  C41  1  0.55900000  0.85050000  0.90480000  1.0 0.0778879266
C  C42  1  0.44100000  0.35050000  0.09520000  1.0 0.0778879266
C  C43  1  0.45650000  0.76764000  0.04409000  1.0 0.0256801387
C  C44  1  0.54350000  0.26764000  0.95591000  1.0 0.0256801387
C  C45  1  0.69110000  0.39172000  0.53270000  1.0 -0.1627571971
C  C46  1  0.30890000  0.89172000  0.46730000  1.0 -0.1627571971
C  C47  1  0.55800000  0.77626000  0.98640000  1.0 -0.1627571971
C  C48  1  0.44200000  0.27626000  0.01360000  1.0 -0.1627571971
N  N1  1  0.26505000  0.24718000  0.61849000  1.0 -0.3278035214
N  N2  1  0.73495000  0.74718000  0.38151000  1.0 -0.3206161967
N  N3  1  0.97483000  0.89744000  0.85860000  1.0 -0.3206161967
N  N4  1  0.02517000  0.39744000  0.14140000  1.0 -0.3206161967
N  N5  1  0.77517000  0.25178000  0.64405000  1.0 -0.3278035214
N  N6  1  0.22483000  0.75178000  0.35595000  1.0 -0.3278035214
N  N7  1  0.46898000  0.91654000  0.88031000  1.0 -0.3206161967
N  N8  1  0.53102000  0.41654000  0.11969000  1.0 -0.3206161967
O  O1  1  0.03449000  0.62264000  0.15671000  1.0 -0.6994692972
O  O2  1  0.96551000  0.12264000  0.84329000  1.0 -0.6994692972
O  O3  1  0.21223000  0.52877000  0.33474000  1.0 -0.711460202
O  O4  1  0.78777000  0.02877000  0.66526000  1.0 -0.711460202
O  O5  1  0.90765000  0.47902000  0.35168000  1.0 -0.6533792208
O  O6  1  0.09235000  0.97902000  0.64832000  1.0 -0.6533792208
O  O7  1  0.33120000  0.66115000  0.12673000  1.0 -0.6592615237
O  O8  1  0.66880000  0.16115000  0.87327000  1.0 -0.6592615237
O  O9  1  0.70934000  0.52574000  0.34277000  1.0 -0.7168333819
O  O10  1  0.29066000  0.02574000  0.65723000  1.0 -0.7168333819
O  O11  1  0.83700000  0.67108000  0.14833000  1.0 -0.6533792208
O  O12  1  0.16300000  0.17108000  0.85167000  1.0 -0.6533792208
O  O13  1  0.54096000  0.63834000  0.17372000  1.0 -0.6928578606
O  O14  1  0.45904000  0.13834000  0.82628000  1.0 -0.6928578606
O  O15  1  0.41082000  0.48136000  0.34419000  1.0 -0.6533792208
O  O16  1  0.58918000  0.98136000  0.65581000  1.0 -0.6533792208
