# DDEC6 charges by PACMAN v1.1 (https://github.com/mtap-research/PACMAN-charge/)
data_XUNSIK_ASR_pacman
_symmetry_space_group_name_H-M   'P 1'
_cell_length_a   5.42410000
_cell_length_b   13.82930000
_cell_length_c   11.23980000
_cell_angle_alpha   90.00000000
_cell_angle_beta   105.28400000
_cell_angle_gamma   90.00000000
_symmetry_Int_Tables_number   1
_chemical_formula_structural   LiH4C6NO2
_chemical_formula_sum   'Li4 H16 C24 N4 O8'
_cell_volume   813.29427340
_cell_formula_units_Z   4
loop_
 _symmetry_equiv_pos_site_id
 _symmetry_equiv_pos_as_xyz
  1  'x, y, z'
loop_
 _atom_site_type_symbol
 _atom_site_label
 _atom_site_symmetry_multiplicity
 _atom_site_fract_x
 _atom_site_fract_y
 _atom_site_fract_z
 _atom_site_occupancy
 _atom_site_charge
Li  Li1  1  0.69790000  0.06560000  0.51500000  1.0 0.7660765585
Li  Li2  1  0.30210000  0.56560000  0.98500000  1.0 0.7660765585
Li  Li3  1  0.30210000  0.93440000  0.48500000  1.0 0.7660765585
Li  Li4  1  0.69790000  0.43440000  0.01500000  1.0 0.7660765585
H  H1  1  0.74480000  0.12320000  0.78140000  1.0 0.1326856402
H  H2  1  0.25520000  0.62320000  0.71860000  1.0 0.1326856402
H  H3  1  0.25520000  0.87680000  0.21860000  1.0 0.1326856402
H  H4  1  0.74480000  0.37680000  0.28140000  1.0 0.1326856402
H  H5  1  0.22960000  0.37240000  0.84470000  1.0 0.1040065934
H  H6  1  0.77040000  0.87240000  0.65530000  1.0 0.1040065934
H  H7  1  0.77040000  0.62760000  0.15530000  1.0 0.1040065934
H  H8  1  0.22960000  0.12760000  0.34470000  1.0 0.1040065934
H  H9  1  0.89320000  0.24050000  0.93010000  1.0 0.0939548437
H  H10  1  0.10680000  0.74050000  0.56990000  1.0 0.0939548437
H  H11  1  0.10680000  0.75950000  0.06990000  1.0 0.0939548437
H  H12  1  0.89320000  0.25950000  0.43010000  1.0 0.0939548437
H  H13  1  0.05470000  0.25590000  0.70030000  1.0 0.1217963782
H  H14  1  0.94530000  0.75590000  0.79970000  1.0 0.1217963782
H  H15  1  0.94530000  0.74410000  0.29970000  1.0 0.1217963782
H  H16  1  0.05470000  0.24410000  0.20030000  1.0 0.1217963782
C  C1  1  0.26484000  0.09647000  0.63424000  1.0 0.6177965042
C  C2  1  0.73516000  0.59647000  0.86576000  1.0 0.6177965042
C  C3  1  0.73516000  0.90353000  0.36576000  1.0 0.6177965042
C  C4  1  0.26484000  0.40353000  0.13424000  1.0 0.6177965042
C  C5  1  0.37925000  0.17512000  0.72605000  1.0 0.0256928702
C  C6  1  0.62075000  0.67512000  0.77395000  1.0 0.0256928702
C  C7  1  0.62075000  0.82488000  0.27395000  1.0 0.0256928702
C  C8  1  0.37925000  0.32488000  0.22605000  1.0 0.0256928702
C  C9  1  0.63356000  0.17284000  0.79436000  1.0 -0.1686808064
C  C10  1  0.36644000  0.67284000  0.70564000  1.0 -0.1686808064
C  C11  1  0.36644000  0.82716000  0.20564000  1.0 -0.1686808064
C  C12  1  0.63356000  0.32716000  0.29436000  1.0 -0.1686808064
C  C13  1  0.33440000  0.32024000  0.83260000  1.0 0.0674725839
C  C14  1  0.66560000  0.82024000  0.66740000  1.0 0.0674725839
C  C15  1  0.66560000  0.67976000  0.16740000  1.0 0.0674725839
C  C16  1  0.33440000  0.17976000  0.33260000  1.0 0.0674725839
C  C17  1  0.72114000  0.24413000  0.88144000  1.0 0.0806333658
C  C18  1  0.27886000  0.74413000  0.61856000  1.0 0.0806333658
C  C19  1  0.27886000  0.75587000  0.11856000  1.0 0.0806333658
C  C20  1  0.72114000  0.25587000  0.38144000  1.0 0.0806333658
C  C21  1  0.22866000  0.25137000  0.74596000  1.0 -0.1686808064
C  C22  1  0.77134000  0.75137000  0.75404000  1.0 -0.1686808064
C  C23  1  0.77134000  0.74863000  0.25404000  1.0 -0.1686808064
C  C24  1  0.22866000  0.24863000  0.24596000  1.0 -0.1686808064
N  N1  1  0.57804000  0.31769000  0.90104000  1.0 -0.3184968743
N  N2  1  0.42196000  0.81769000  0.59896000  1.0 -0.3184968743
N  N3  1  0.42196000  0.68231000  0.09896000  1.0 -0.3184968743
N  N4  1  0.57804000  0.18231000  0.40104000  1.0 -0.3184968743
O  O1  1  0.41506000  0.04677000  0.59116000  1.0 -0.7055397096
O  O2  1  0.58494000  0.54677000  0.90884000  1.0 -0.7055397096
O  O3  1  0.58494000  0.95323000  0.40884000  1.0 -0.7055397096
O  O4  1  0.41506000  0.45323000  0.09116000  1.0 -0.7048891845
O  O5  1  0.02988000  0.08635000  0.61038000  1.0 -0.6488797727
O  O6  1  0.97012000  0.58635000  0.88962000  1.0 -0.6488797727
O  O7  1  0.97012000  0.91365000  0.38962000  1.0 -0.6488797727
O  O8  1  0.02988000  0.41365000  0.11038000  1.0 -0.6488797727
