# DDEC6 charges by PACMAN v1.1 (https://github.com/mtap-research/PACMAN-charge/)
data_XUNSEG_FSR_pacman
_symmetry_space_group_name_H-M   'P 1'
_cell_length_a   5.38810000
_cell_length_b   14.11750000
_cell_length_c   11.63450000
_cell_angle_alpha   90.00000000
_cell_angle_beta   105.83400000
_cell_angle_gamma   90.00000000
_symmetry_Int_Tables_number   1
_chemical_formula_structural   LiH4C6NO2
_chemical_formula_sum   'Li4 H16 C24 N4 O8'
_cell_volume   851.41565826
_cell_formula_units_Z   4
loop_
 _symmetry_equiv_pos_site_id
 _symmetry_equiv_pos_as_xyz
  1  'x, y, z'
loop_
 _atom_site_type_symbol
 _atom_site_label
 _atom_site_symmetry_multiplicity
 _atom_site_fract_x
 _atom_site_fract_y
 _atom_site_fract_z
 _atom_site_occupancy
 _atom_site_charge
Li  Li1  1  0.20170000  0.43660000  0.99650000  1.0 0.7661873191
Li  Li2  1  0.79830000  0.93660000  0.50350000  1.0 0.7661873191
Li  Li3  1  0.79830000  0.56340000  0.00350000  1.0 0.7661873191
Li  Li4  1  0.20170000  0.06340000  0.49650000  1.0 0.7661873191
H  H1  1  0.73750000  0.10840000  0.29970000  1.0 0.105579333
H  H2  1  0.26250000  0.60840000  0.20030000  1.0 0.105579333
H  H3  1  0.26250000  0.89160000  0.70030000  1.0 0.105579333
H  H4  1  0.73750000  0.39160000  0.79970000  1.0 0.105579333
H  H5  1  0.25010000  0.35720000  0.25060000  1.0 0.131248185
H  H6  1  0.74990000  0.85720000  0.24940000  1.0 0.131248185
H  H7  1  0.74990000  0.64280000  0.74940000  1.0 0.131248185
H  H8  1  0.25010000  0.14280000  0.75060000  1.0 0.131248185
H  H9  1  0.40100000  0.24060000  0.39310000  1.0 0.0950629428
H  H10  1  0.59900000  0.74060000  0.10690000  1.0 0.0950629428
H  H11  1  0.59900000  0.75940000  0.60690000  1.0 0.0950629428
H  H12  1  0.40100000  0.25940000  0.89310000  1.0 0.0950629428
H  H13  1  0.56190000  0.22430000  0.16110000  1.0 0.1215366512
H  H14  1  0.43810000  0.72430000  0.33890000  1.0 0.1215366512
H  H15  1  0.43810000  0.77570000  0.83890000  1.0 0.1215366512
H  H16  1  0.56190000  0.27570000  0.66110000  1.0 0.1215366512
C  C1  1  0.88360000  0.30660000  0.19390000  1.0 0.0215624176
C  C2  1  0.11640000  0.80660000  0.30610000  1.0 0.0215624176
C  C3  1  0.11640000  0.69340000  0.80610000  1.0 0.0215624176
C  C4  1  0.88360000  0.19340000  0.69390000  1.0 0.0215624176
C  C5  1  0.76340000  0.38670000  0.10980000  1.0 0.6127757371
C  C6  1  0.23660000  0.88670000  0.39020000  1.0 0.6127757371
C  C7  1  0.23660000  0.61330000  0.89020000  1.0 0.6127757371
C  C8  1  0.76340000  0.11330000  0.60980000  1.0 0.6127757371
C  C9  1  0.84190000  0.16090000  0.29170000  1.0 0.0695250002
C  C10  1  0.15810000  0.66090000  0.20830000  1.0 0.0695250002
C  C11  1  0.15810000  0.83910000  0.70830000  1.0 0.0695250002
C  C12  1  0.84190000  0.33910000  0.79170000  1.0 0.0695250002
C  C13  1  0.13780000  0.30820000  0.26130000  1.0 -0.160397327
C  C14  1  0.86220000  0.80820000  0.23870000  1.0 -0.160397327
C  C15  1  0.86220000  0.69180000  0.73870000  1.0 -0.160397327
C  C16  1  0.13780000  0.19180000  0.76130000  1.0 -0.160397327
C  C17  1  0.22750000  0.23710000  0.34500000  1.0 0.0695250002
C  C18  1  0.77250000  0.73710000  0.15500000  1.0 0.0695250002
C  C19  1  0.77250000  0.76290000  0.65500000  1.0 0.0695250002
C  C20  1  0.22750000  0.26290000  0.84500000  1.0 0.0695250002
C  C21  1  0.73540000  0.22970000  0.20820000  1.0 -0.160397327
C  C22  1  0.26460000  0.72970000  0.29180000  1.0 -0.160397327
C  C23  1  0.26460000  0.77030000  0.79180000  1.0 -0.160397327
C  C24  1  0.73540000  0.27030000  0.70820000  1.0 -0.160397327
N  N1  1  0.08380000  0.16420000  0.36170000  1.0 -0.3197799757
N  N2  1  0.91620000  0.66420000  0.13830000  1.0 -0.3197799757
N  N3  1  0.91620000  0.83580000  0.63830000  1.0 -0.3197799757
N  N4  1  0.08380000  0.33580000  0.86170000  1.0 -0.3197799757
O  O1  1  0.91440000  0.43920000  0.07280000  1.0 -0.704732886
O  O2  1  0.08560000  0.93920000  0.42720000  1.0 -0.7057358533
O  O3  1  0.08560000  0.56080000  0.92720000  1.0 -0.7057358533
O  O4  1  0.91440000  0.06080000  0.57280000  1.0 -0.7057358533
O  O5  1  0.52680000  0.39530000  0.08640000  1.0 -0.646942845
O  O6  1  0.47320000  0.89530000  0.41360000  1.0 -0.646942845
O  O7  1  0.47320000  0.60470000  0.91360000  1.0 -0.646942845
O  O8  1  0.52680000  0.10470000  0.58640000  1.0 -0.646942845
