# DDEC6 charges by PACMAN v1.1 (https://github.com/mtap-research/PACMAN-charge/)
data_XUNTIL_FSR_pacman
_symmetry_space_group_name_H-M   'P 1'
_cell_length_a   5.20380000
_cell_length_b   14.51600000
_cell_length_c   10.29500000
_cell_angle_alpha   90.00000000
_cell_angle_beta   96.14000000
_cell_angle_gamma   90.00000000
_symmetry_Int_Tables_number   1
_chemical_formula_structural   LiH4C6NO2
_chemical_formula_sum   'Li4 H16 C24 N4 O8'
_cell_volume   773.20634732
_cell_formula_units_Z   4
loop_
 _symmetry_equiv_pos_site_id
 _symmetry_equiv_pos_as_xyz
  1  'x, y, z'
loop_
 _atom_site_type_symbol
 _atom_site_label
 _atom_site_symmetry_multiplicity
 _atom_site_fract_x
 _atom_site_fract_y
 _atom_site_fract_z
 _atom_site_occupancy
 _atom_site_charge
Li  Li1  1  0.31500000  0.56570000  0.00200000  1.0 0.769945932
Li  Li2  1  0.68500000  0.06570000  0.49800000  1.0 0.769945932
Li  Li3  1  0.68500000  0.43430000  0.99800000  1.0 0.769945932
Li  Li4  1  0.31500000  0.93430000  0.50200000  1.0 0.769945932
H  H1  1  0.16630000  0.76230000  0.07430000  1.0 0.0974016538
H  H2  1  0.83370000  0.26230000  0.42570000  1.0 0.0974016538
H  H3  1  0.83370000  0.23770000  0.92570000  1.0 0.0974016538
H  H4  1  0.16630000  0.73770000  0.57430000  1.0 0.0974016538
H  H5  1  0.92010000  0.71860000  0.34820000  1.0 0.122361747
H  H6  1  0.07990000  0.21860000  0.15180000  1.0 0.122361747
H  H7  1  0.07990000  0.28140000  0.65180000  1.0 0.122361747
H  H8  1  0.92010000  0.78140000  0.84820000  1.0 0.122361747
H  H9  1  0.32880000  0.88070000  0.21640000  1.0 0.1333989477
H  H10  1  0.67120000  0.38070000  0.28360000  1.0 0.1333989477
H  H11  1  0.67120000  0.11930000  0.78360000  1.0 0.1333989477
H  H12  1  0.32880000  0.61930000  0.71640000  1.0 0.1333989477
H  H13  1  0.76580000  0.60250000  0.20060000  1.0 0.1085498057
H  H14  1  0.23420000  0.10250000  0.29940000  1.0 0.1085498057
H  H15  1  0.23420000  0.39750000  0.79940000  1.0 0.1085498057
H  H16  1  0.76580000  0.89750000  0.70060000  1.0 0.1085498057
C  C1  1  0.32100000  0.75240000  0.13050000  1.0 0.1085498057
C  C2  1  0.67900000  0.25240000  0.36950000  1.0 0.1085498057
C  C3  1  0.67900000  0.24760000  0.86950000  1.0 0.1085498057
C  C4  1  0.32100000  0.74760000  0.63050000  1.0 0.1085498057
C  C5  1  0.65900000  0.81200000  0.29140000  1.0 0.0105649903
C  C6  1  0.34100000  0.31200000  0.20860000  1.0 0.0105649903
C  C7  1  0.34100000  0.18800000  0.70860000  1.0 0.0105649903
C  C8  1  0.65900000  0.68800000  0.79140000  1.0 0.0105649903
C  C9  1  0.77500000  0.88870000  0.37560000  1.0 0.6068586236
C  C10  1  0.22500000  0.38870000  0.12440000  1.0 0.6068586236
C  C11  1  0.22500000  0.11130000  0.62440000  1.0 0.6068586236
C  C12  1  0.77500000  0.61130000  0.87560000  1.0 0.6068586236
C  C13  1  0.76900000  0.72990000  0.28990000  1.0 -0.1423600415
C  C14  1  0.23100000  0.22990000  0.21010000  1.0 -0.1423600415
C  C15  1  0.23100000  0.27010000  0.71010000  1.0 -0.1423600415
C  C16  1  0.76900000  0.77010000  0.78990000  1.0 -0.1423600415
C  C17  1  0.42100000  0.82440000  0.21320000  1.0 -0.1757898355
C  C18  1  0.57900000  0.32440000  0.28680000  1.0 -0.1757898355
C  C19  1  0.57900000  0.17560000  0.78680000  1.0 -0.1757898355
C  C20  1  0.42100000  0.67560000  0.71320000  1.0 -0.1757898355
C  C21  1  0.67300000  0.65850000  0.20560000  1.0 0.0449609583
C  C22  1  0.32700000  0.15850000  0.29440000  1.0 0.0449609583
C  C23  1  0.32700000  0.34150000  0.79440000  1.0 0.0449609583
C  C24  1  0.67300000  0.84150000  0.70560000  1.0 0.0449609583
N  N1  1  0.43600000  0.67200000  0.12910000  1.0 -0.3246473098
N  N2  1  0.56400000  0.17200000  0.37090000  1.0 -0.3246473098
N  N3  1  0.56400000  0.32800000  0.87090000  1.0 -0.3246473098
N  N4  1  0.43600000  0.82800000  0.62910000  1.0 -0.3246473098
O  O1  1  0.61300000  0.95370000  0.40590000  1.0 -0.7758448595
O  O2  1  0.38700000  0.45370000  0.09410000  1.0 -0.7748973841
O  O3  1  0.38700000  0.04630000  0.59410000  1.0 -0.7758448595
O  O4  1  0.61300000  0.54630000  0.90590000  1.0 -0.7748973841
O  O5  1  0.99600000  0.88470000  0.41610000  1.0 -0.5844241554
O  O6  1  0.00400000  0.38470000  0.08390000  1.0 -0.5844241554
O  O7  1  0.00400000  0.11530000  0.58390000  1.0 -0.5844241554
O  O8  1  0.99600000  0.61530000  0.91610000  1.0 -0.5844241554
