# DDEC6 charges by PACMAN v1.1 (https://github.com/mtap-research/PACMAN-charge/)
data_XUQWEL_ASR_pacman
_symmetry_space_group_name_H-M   'P 1'
_cell_length_a   16.79360000
_cell_length_b   9.58580000
_cell_length_c   22.58270000
_cell_angle_alpha   90.00000000
_cell_angle_beta   104.21600000
_cell_angle_gamma   90.00000000
_symmetry_Int_Tables_number   1
_chemical_formula_structural   La(SO4)2
_chemical_formula_sum   'La16 S32 O128'
_cell_volume   3524.03861983
_cell_formula_units_Z   16
loop_
 _symmetry_equiv_pos_site_id
 _symmetry_equiv_pos_as_xyz
  1  'x, y, z'
loop_
 _atom_site_type_symbol
 _atom_site_label
 _atom_site_symmetry_multiplicity
 _atom_site_fract_x
 _atom_site_fract_y
 _atom_site_fract_z
 _atom_site_occupancy
 _atom_site_charge
La  La1  1  0.57491000  0.27705000  0.18184000  1.0 1.6966112604
La  La2  1  0.42509000  0.72295000  0.81816000  1.0 1.7108217229
La  La3  1  0.42509000  0.77705000  0.31816000  1.0 1.7108217229
La  La4  1  0.57491000  0.22295000  0.68184000  1.0 1.6966112604
La  La5  1  0.73464000  0.76350000  0.04640000  1.0 1.8491515865
La  La6  1  0.26536000  0.23650000  0.95360000  1.0 1.8407520999
La  La7  1  0.26536000  0.26350000  0.45360000  1.0 1.8491515865
La  La8  1  0.73464000  0.73650000  0.54640000  1.0 1.8491515865
La  La9  1  0.03376000  0.73864000  0.08651000  1.0 2.0219053973
La  La10  1  0.96624000  0.26136000  0.91349000  1.0 2.0219053973
La  La11  1  0.96624000  0.23864000  0.41349000  1.0 2.0219053973
La  La12  1  0.03376000  0.76136000  0.58651000  1.0 2.0219053973
La  La13  1  0.81637000  0.19879000  0.12434000  1.0 2.0954967091
La  La14  1  0.18363000  0.80121000  0.87566000  1.0 2.0954967091
La  La15  1  0.18363000  0.69879000  0.37566000  1.0 2.0954967091
La  La16  1  0.81637000  0.30121000  0.62434000  1.0 2.0916499843
S  S1  1  0.87472000  0.47801000  0.01993000  1.0 1.4917165388
S  S2  1  0.12528000  0.52199000  0.98007000  1.0 1.4917165388
S  S3  1  0.12528000  0.97801000  0.48007000  1.0 1.4917165388
S  S4  1  0.87472000  0.02199000  0.51993000  1.0 1.4917165388
S  S5  1  0.65270000  0.02584000  0.10721000  1.0 1.4213984956
S  S6  1  0.34730000  0.97416000  0.89279000  1.0 1.4213984956
S  S7  1  0.34730000  0.52584000  0.39279000  1.0 1.4213984956
S  S8  1  0.65270000  0.47416000  0.60721000  1.0 1.4213984956
S  S9  1  0.87726000  0.99475000  0.99976000  1.0 1.5027497162
S  S10  1  0.12274000  0.00525000  0.00024000  1.0 1.5027497162
S  S11  1  0.12274000  0.49475000  0.50024000  1.0 1.5027497162
S  S12  1  0.87726000  0.50525000  0.49976000  1.0 1.5027497162
S  S13  1  0.80065000  0.30196000  0.27745000  1.0 1.4087646057
S  S14  1  0.19935000  0.69804000  0.72255000  1.0 1.4087646057
S  S15  1  0.19935000  0.80196000  0.22255000  1.0 1.4087646057
S  S16  1  0.80065000  0.19804000  0.77745000  1.0 1.4087646057
S  S17  1  0.51020000  0.03404000  0.25951000  1.0 1.3790199806
S  S18  1  0.48980000  0.96596000  0.74049000  1.0 1.3790199806
S  S19  1  0.48980000  0.53404000  0.24049000  1.0 1.3790199806
S  S20  1  0.51020000  0.46596000  0.75951000  1.0 1.3790199806
S  S21  1  0.67651000  0.51203000  0.11715000  1.0 1.4474402715
S  S22  1  0.32349000  0.48797000  0.88285000  1.0 1.4474402715
S  S23  1  0.32349000  0.01203000  0.38285000  1.0 1.4474402715
S  S24  1  0.67651000  0.98797000  0.61715000  1.0 1.4474402715
S  S25  1  0.41351000  0.24746000  0.07254000  1.0 1.4017266382
S  S26  1  0.58649000  0.75254000  0.92746000  1.0 1.4017266382
S  S27  1  0.58649000  0.74746000  0.42746000  1.0 1.4017266382
S  S28  1  0.41351000  0.25254000  0.57254000  1.0 1.4017266382
S  S29  1  0.91347000  0.83477000  0.17188000  1.0 1.4017266382
S  S30  1  0.08653000  0.16523000  0.82812000  1.0 1.4017266382
S  S31  1  0.08653000  0.33477000  0.32812000  1.0 1.4017266382
S  S32  1  0.91347000  0.66523000  0.67188000  1.0 1.4017266382
O  O1  1  0.84146000  0.38156000  0.06008000  1.0 -0.7112351309
O  O2  1  0.15854000  0.61844000  0.93992000  1.0 -0.7112351309
O  O3  1  0.15854000  0.88156000  0.43992000  1.0 -0.7112351309
O  O4  1  0.84146000  0.11844000  0.56008000  1.0 -0.7112351309
O  O5  1  0.81935000  0.59925000  0.00289000  1.0 -0.6473974579
O  O6  1  0.18065000  0.40075000  0.99711000  1.0 -0.6410507809
O  O7  1  0.18065000  0.09925000  0.49711000  1.0 -0.6410507809
O  O8  1  0.81935000  0.90075000  0.50289000  1.0 -0.6410507809
O  O9  1  0.95827000  0.52545000  0.05421000  1.0 -0.7112351309
O  O10  1  0.04173000  0.47455000  0.94579000  1.0 -0.7112351309
O  O11  1  0.04173000  0.02545000  0.44579000  1.0 -0.7186411749
O  O12  1  0.95827000  0.97455000  0.55421000  1.0 -0.7112351309
O  O13  1  0.88178000  0.40158000  0.96412000  1.0 -0.6744146596
O  O14  1  0.11822000  0.59842000  0.03588000  1.0 -0.6773297291
O  O15  1  0.11822000  0.90158000  0.53588000  1.0 -0.6744146596
O  O16  1  0.88178000  0.09842000  0.46412000  1.0 -0.6744146596
O  O17  1  0.69689000  0.09588000  0.16617000  1.0 -0.6286520834
O  O18  1  0.30311000  0.90412000  0.83383000  1.0 -0.6286520834
O  O19  1  0.30311000  0.59588000  0.33383000  1.0 -0.6286520834
O  O20  1  0.69689000  0.40412000  0.66617000  1.0 -0.6286520834
O  O21  1  0.64941000  0.87280000  0.11393000  1.0 -0.5311213335
O  O22  1  0.35059000  0.12720000  0.88607000  1.0 -0.5311213335
O  O23  1  0.35059000  0.37280000  0.38607000  1.0 -0.5311213335
O  O24  1  0.64941000  0.62720000  0.61393000  1.0 -0.5311213335
O  O25  1  0.70649000  0.05451000  0.06283000  1.0 -0.6988875254
O  O26  1  0.29351000  0.94549000  0.93717000  1.0 -0.6934861045
O  O27  1  0.29351000  0.55451000  0.43717000  1.0 -0.6934861045
O  O28  1  0.70649000  0.44549000  0.56283000  1.0 -0.6988875254
O  O29  1  0.57132000  0.09164000  0.08732000  1.0 -0.4539993952
O  O30  1  0.42868000  0.90836000  0.91268000  1.0 -0.4559679221
O  O31  1  0.42868000  0.59164000  0.41268000  1.0 -0.4559679221
O  O32  1  0.57132000  0.40836000  0.58732000  1.0 -0.4539993952
O  O33  1  0.79548000  0.92654000  0.98582000  1.0 -0.6286520834
O  O34  1  0.20452000  0.07346000  0.01418000  1.0 -0.6286520834
O  O35  1  0.20452000  0.42654000  0.51418000  1.0 -0.6286520834
O  O36  1  0.79548000  0.57346000  0.48582000  1.0 -0.6286520834
O  O37  1  0.88672000  0.07410000  0.94571000  1.0 -0.6410507809
O  O38  1  0.11328000  0.92590000  0.05429000  1.0 -0.6410507809
O  O39  1  0.11328000  0.57410000  0.55429000  1.0 -0.6410507809
O  O40  1  0.88672000  0.42590000  0.44571000  1.0 -0.6410507809
O  O41  1  0.94198000  0.88435000  0.01632000  1.0 -0.7112351309
O  O42  1  0.05802000  0.11565000  0.98368000  1.0 -0.7112351309
O  O43  1  0.05802000  0.38435000  0.48368000  1.0 -0.7112351309
O  O44  1  0.94198000  0.61565000  0.51632000  1.0 -0.7112351309
O  O45  1  0.88755000  0.09233000  0.05290000  1.0 -0.7186411749
O  O46  1  0.11245000  0.90767000  0.94710000  1.0 -0.7186411749
O  O47  1  0.11245000  0.59233000  0.44710000  1.0 -0.7186411749
O  O48  1  0.88755000  0.40767000  0.55290000  1.0 -0.7186411749
O  O49  1  0.83506000  0.23938000  0.33886000  1.0 -0.6473974579
O  O50  1  0.16494000  0.76062000  0.66114000  1.0 -0.6473974579
O  O51  1  0.16494000  0.73938000  0.16114000  1.0 -0.6473974579
O  O52  1  0.83506000  0.26062000  0.83886000  1.0 -0.6473974579
O  O53  1  0.83933000  0.22616000  0.23294000  1.0 -0.7112351309
O  O54  1  0.16067000  0.77384000  0.76706000  1.0 -0.7112351309
O  O55  1  0.16067000  0.72616000  0.26706000  1.0 -0.7112351309
O  O56  1  0.83933000  0.27384000  0.73294000  1.0 -0.6988875254
O  O57  1  0.82016000  0.45179000  0.27609000  1.0 -0.4559679221
O  O58  1  0.17984000  0.54821000  0.72391000  1.0 -0.4559679221
O  O59  1  0.17984000  0.95179000  0.22391000  1.0 -0.4559679221
O  O60  1  0.82016000  0.04821000  0.77609000  1.0 -0.4539993952
O  O61  1  0.70997000  0.28235000  0.26013000  1.0 -0.6110302608
O  O62  1  0.29003000  0.71765000  0.73987000  1.0 -0.6110302608
O  O63  1  0.29003000  0.78235000  0.23987000  1.0 -0.6110302608
O  O64  1  0.70997000  0.21765000  0.76013000  1.0 -0.6110302608
O  O65  1  0.54829000  0.95807000  0.31715000  1.0 -0.5201133441
O  O66  1  0.45171000  0.04193000  0.68285000  1.0 -0.5104146213
O  O67  1  0.45171000  0.45807000  0.18285000  1.0 -0.5104146213
O  O68  1  0.54829000  0.54193000  0.81715000  1.0 -0.5201133441
O  O69  1  0.55972000  0.01321000  0.21346000  1.0 -0.5104146213
O  O70  1  0.44028000  0.98679000  0.78654000  1.0 -0.5104146213
O  O71  1  0.44028000  0.51321000  0.28654000  1.0 -0.5104146213
O  O72  1  0.55972000  0.48679000  0.71346000  1.0 -0.5104146213
O  O73  1  0.57413000  0.47446000  0.26444000  1.0 -0.5034924001
O  O74  1  0.42587000  0.52554000  0.73556000  1.0 -0.5104146213
O  O75  1  0.42587000  0.97446000  0.23556000  1.0 -0.5034924001
O  O76  1  0.57413000  0.02554000  0.76444000  1.0 -0.5034924001
O  O77  1  0.50606000  0.18778000  0.26936000  1.0 -0.5104146213
O  O78  1  0.49394000  0.81222000  0.73064000  1.0 -0.5104146213
O  O79  1  0.49394000  0.68778000  0.23064000  1.0 -0.5104146213
O  O80  1  0.50606000  0.31222000  0.76936000  1.0 -0.5104146213
O  O81  1  0.69772000  0.35846000  0.11827000  1.0 -0.6934861045
O  O82  1  0.30228000  0.64154000  0.88173000  1.0 -0.6988875254
O  O83  1  0.30228000  0.85846000  0.38173000  1.0 -0.6988875254
O  O84  1  0.69772000  0.14154000  0.61827000  1.0 -0.6934861045
O  O85  1  0.61474000  0.52581000  0.15408000  1.0 -0.5104146213
O  O86  1  0.38526000  0.47419000  0.84592000  1.0 -0.5104146213
O  O87  1  0.38526000  0.02581000  0.34592000  1.0 -0.5104146213
O  O88  1  0.61474000  0.97419000  0.65408000  1.0 -0.5104146213
O  O89  1  0.64068000  0.55850000  0.05288000  1.0 -0.5677509259
O  O90  1  0.35932000  0.44150000  0.94712000  1.0 -0.5639897933
O  O91  1  0.35932000  0.05850000  0.44712000  1.0 -0.5677509259
O  O92  1  0.64068000  0.94150000  0.55288000  1.0 -0.5639897933
O  O93  1  0.75118000  0.59786000  0.14164000  1.0 -0.5639897933
O  O94  1  0.24882000  0.40214000  0.85836000  1.0 -0.5639897933
O  O95  1  0.24882000  0.09786000  0.35836000  1.0 -0.5639897933
O  O96  1  0.75118000  0.90214000  0.64164000  1.0 -0.5639897933
O  O97  1  0.40231000  0.14760000  0.02024000  1.0 -0.5377361626
O  O98  1  0.59769000  0.85240000  0.97976000  1.0 -0.5484334082
O  O99  1  0.59769000  0.64760000  0.47976000  1.0 -0.5484334082
O  O100  1  0.40231000  0.35240000  0.52024000  1.0 -0.5484334082
O  O101  1  0.48575000  0.34060000  0.07409000  1.0 -0.5201133441
O  O102  1  0.51425000  0.65940000  0.92591000  1.0 -0.5311213335
O  O103  1  0.51425000  0.84060000  0.42591000  1.0 -0.5311213335
O  O104  1  0.48575000  0.15940000  0.57409000  1.0 -0.5201133441
O  O105  1  0.42950000  0.17186000  0.13199000  1.0 -0.5311213335
O  O106  1  0.57050000  0.82814000  0.86801000  1.0 -0.5377361626
O  O107  1  0.57050000  0.67186000  0.36801000  1.0 -0.5377361626
O  O108  1  0.42950000  0.32814000  0.63199000  1.0 -0.5311213335
O  O109  1  0.33655000  0.33163000  0.06226000  1.0 -0.5311213335
O  O110  1  0.66345000  0.66837000  0.93774000  1.0 -0.5311213335
O  O111  1  0.66345000  0.83163000  0.43774000  1.0 -0.5311213335
O  O112  1  0.33655000  0.16837000  0.56226000  1.0 -0.5311213335
O  O113  1  0.85556000  0.95644000  0.15876000  1.0 -0.6773297291
O  O114  1  0.14444000  0.04356000  0.84124000  1.0 -0.6744146596
O  O115  1  0.14444000  0.45644000  0.34124000  1.0 -0.6773297291
O  O116  1  0.85556000  0.54356000  0.65876000  1.0 -0.6773297291
O  O117  1  0.90850000  0.76557000  0.22858000  1.0 -0.412657174
O  O118  1  0.09150000  0.23443000  0.77142000  1.0 -0.412657174
O  O119  1  0.09150000  0.26557000  0.27142000  1.0 -0.412657174
O  O120  1  0.90850000  0.73443000  0.72858000  1.0 -0.412657174
O  O121  1  0.88770000  0.73810000  0.11665000  1.0 -0.6988875254
O  O122  1  0.11230000  0.26190000  0.88335000  1.0 -0.6988875254
O  O123  1  0.11230000  0.23810000  0.38335000  1.0 -0.6988875254
O  O124  1  0.88770000  0.76190000  0.61665000  1.0 -0.6988875254
O  O125  1  0.99920000  0.87892000  0.17252000  1.0 -0.6410507809
O  O126  1  0.00080000  0.12108000  0.82748000  1.0 -0.6473974579
O  O127  1  0.00080000  0.37892000  0.32748000  1.0 -0.6473974579
O  O128  1  0.99920000  0.62108000  0.67252000  1.0 -0.6410507809
