# DDEC6 charges by PACMAN v1.1 (https://github.com/mtap-research/PACMAN-charge/)
data_XURNUU_FSR_pacman
_symmetry_space_group_name_H-M   'P 1'
_cell_length_a   13.21620000
_cell_length_b   13.21620000
_cell_length_c   13.57160000
_cell_angle_alpha   61.79920000
_cell_angle_beta   118.20100000
_cell_angle_gamma   136.53300000
_symmetry_Int_Tables_number   1
_chemical_formula_structural   Cd2H16C20S2N4O11
_chemical_formula_sum   'Cd4 H32 C40 S4 N8 O22'
_cell_volume   1403.97556338
_cell_formula_units_Z   2
loop_
 _symmetry_equiv_pos_site_id
 _symmetry_equiv_pos_as_xyz
  1  'x, y, z'
loop_
 _atom_site_type_symbol
 _atom_site_label
 _atom_site_symmetry_multiplicity
 _atom_site_fract_x
 _atom_site_fract_y
 _atom_site_fract_z
 _atom_site_occupancy
 _atom_site_charge
Cd  Cd1  1  0.36339000  0.85659000  0.89820000  1.0 0.9476276179
Cd  Cd2  1  0.85659000  0.36339000  0.10180000  1.0 0.9476276179
Cd  Cd3  1  0.35842000  0.84610000  0.35669000  1.0 0.9432519416
Cd  Cd4  1  0.84610000  0.35842000  0.64331000  1.0 0.9476276179
H  H1  1  0.72450000  0.07630000  0.96120000  1.0 0.1096693466
H  H2  1  0.07630000  0.72450000  0.03880000  1.0 0.1096693466
H  H3  1  0.92250000  0.07530000  0.04830000  1.0 0.1279772075
H  H4  1  0.07530000  0.92250000  0.95170000  1.0 0.1279772075
H  H5  1  0.62160000  0.62620000  0.14100000  1.0 0.1396676788
H  H6  1  0.62620000  0.62160000  0.85900000  1.0 0.1396676788
H  H7  1  0.43050000  0.63730000  0.04810000  1.0 0.1279772075
H  H8  1  0.63730000  0.43050000  0.95190000  1.0 0.1279772075
H  H9  1  0.79490000  0.61870000  0.19760000  1.0 0.1396676788
H  H10  1  0.61870000  0.79490000  0.80240000  1.0 0.1396676788
H  H11  1  0.98860000  0.61560000  0.28380000  1.0 0.1279772075
H  H12  1  0.61560000  0.98860000  0.71620000  1.0 0.1279772075
H  H13  1  0.00700000  0.63700000  0.79550000  1.0 0.1279772075
H  H14  1  0.63700000  0.00700000  0.20450000  1.0 0.1279772075
H  H15  1  0.81010000  0.63010000  0.70950000  1.0 0.1396676788
H  H16  1  0.63010000  0.81010000  0.29050000  1.0 0.1396676788
H  H17  1  0.09860000  0.08180000  0.63940000  1.0 0.1279772075
H  H18  1  0.08180000  0.09860000  0.36060000  1.0 0.1279772075
H  H19  1  0.29150000  0.07590000  0.74270000  1.0 0.1167686398
H  H20  1  0.07590000  0.29150000  0.25730000  1.0 0.1167686398
H  H21  1  0.63340000  0.63280000  0.60840000  1.0 0.1396676788
H  H22  1  0.63280000  0.63340000  0.39160000  1.0 0.1396676788
H  H23  1  0.92240000  0.08000000  0.55920000  1.0 0.1279772075
H  H24  1  0.08000000  0.92240000  0.44080000  1.0 0.1279772075
H  H25  1  0.28240000  0.05700000  0.22270000  1.0 0.1096693466
H  H26  1  0.05700000  0.28240000  0.77730000  1.0 0.1096693466
H  H27  1  0.09180000  0.06880000  0.13750000  1.0 0.1279772075
H  H28  1  0.06880000  0.09180000  0.86250000  1.0 0.1279772075
H  H29  1  0.71530000  0.07070000  0.45390000  1.0 0.1096693466
H  H30  1  0.07070000  0.71530000  0.54610000  1.0 0.1096693466
H  H31  1  0.44310000  0.63610000  0.51310000  1.0 0.1279772075
H  H32  1  0.63610000  0.44310000  0.48690000  1.0 0.1279772075
C  C1  1  0.70330000  0.98450000  0.99690000  1.0 0.1015141665
C  C2  1  0.98450000  0.70330000  0.00310000  1.0 0.1015141665
C  C3  1  0.82390000  0.98510000  0.04920000  1.0 -0.2033747097
C  C4  1  0.98510000  0.82390000  0.95080000  1.0 -0.2033747097
C  C5  1  0.79360000  0.84760000  0.10300000  1.0 0.0929759548
C  C6  1  0.84760000  0.79360000  0.89700000  1.0 0.0929759548
C  C7  1  0.64540000  0.71900000  0.10350000  1.0 -0.1792287117
C  C8  1  0.71900000  0.64540000  0.89650000  1.0 -0.1792287117
C  C9  1  0.53000000  0.72600000  0.04850000  1.0 0.1015141665
C  C10  1  0.72600000  0.53000000  0.95150000  1.0 0.1015141665
C  C11  1  0.91860000  0.84280000  0.15990000  1.0 0.0929759548
C  C12  1  0.84280000  0.91860000  0.84010000  1.0 0.0929759548
C  C13  1  0.89340000  0.70940000  0.20330000  1.0 -0.1792287117
C  C14  1  0.70940000  0.89340000  0.79670000  1.0 -0.1792287117
C  C15  1  0.00960000  0.70740000  0.25430000  1.0 0.0672835226
C  C16  1  0.70740000  0.00960000  0.74570000  1.0 0.0672835226
C  C17  1  0.02560000  0.72740000  0.76720000  1.0 0.079340786
C  C18  1  0.72740000  0.02560000  0.23280000  1.0 0.079340786
C  C19  1  0.90720000  0.72280000  0.71270000  1.0 -0.1879242396
C  C20  1  0.72280000  0.90720000  0.28730000  1.0 -0.1879242396
C  C21  1  0.92710000  0.85370000  0.66130000  1.0 0.1015141665
C  C22  1  0.85370000  0.92710000  0.33870000  1.0 0.1015141665
C  C23  1  0.07760000  0.99000000  0.67290000  1.0 -0.2071833869
C  C24  1  0.99000000  0.07760000  0.32710000  1.0 -0.2071833869
C  C25  1  0.19290000  0.98570000  0.73430000  1.0 0.0672835226
C  C26  1  0.98570000  0.19290000  0.26570000  1.0 0.0672835226
C  C27  1  0.79860000  0.85540000  0.59750000  1.0 0.0929759548
C  C28  1  0.85540000  0.79860000  0.40250000  1.0 0.0929759548
C  C29  1  0.65370000  0.72410000  0.57940000  1.0 -0.1745959481
C  C30  1  0.72410000  0.65370000  0.42060000  1.0 -0.1745959481
C  C31  1  0.82530000  0.98830000  0.55000000  1.0 -0.1879242396
C  C32  1  0.98830000  0.82530000  0.45000000  1.0 -0.1879242396
C  C33  1  0.18300000  0.96760000  0.21880000  1.0 0.1015141665
C  C34  1  0.96760000  0.18300000  0.78120000  1.0 0.1015141665
C  C35  1  0.06850000  0.97590000  0.16690000  1.0 -0.2163658997
C  C36  1  0.97590000  0.06850000  0.83310000  1.0 -0.2163658997
C  C37  1  0.69920000  0.98140000  0.48590000  1.0 0.0929759548
C  C38  1  0.98140000  0.69920000  0.51410000  1.0 0.0929759548
C  C39  1  0.54100000  0.72740000  0.52000000  1.0 0.0672835226
C  C40  1  0.72740000  0.54100000  0.48000000  1.0 0.0672835226
S  S1  1  0.24189000  0.61149000  0.77632000  1.0 1.3800716738
S  S2  1  0.61149000  0.24189000  0.22368000  1.0 1.3800716738
S  S3  1  0.64080000  0.25868000  0.81189000  1.0 1.3913433889
S  S4  1  0.25868000  0.64080000  0.18811000  1.0 1.3913433889
N  N1  1  0.56030000  0.85970000  0.99550000  1.0 -0.2664108535
N  N2  1  0.85970000  0.56030000  0.00450000  1.0 -0.2664108535
N  N3  1  0.16750000  0.85370000  0.78300000  1.0 -0.249466568
N  N4  1  0.85370000  0.16750000  0.21700000  1.0 -0.249466568
N  N5  1  0.15720000  0.83940000  0.26260000  1.0 -0.2664108535
N  N6  1  0.83940000  0.15720000  0.73740000  1.0 -0.2664108535
N  N7  1  0.56030000  0.85350000  0.47000000  1.0 -0.249466568
N  N8  1  0.85350000  0.56030000  0.53000000  1.0 -0.249466568
O  O1  1  0.39300000  0.98460000  0.99790000  1.0 0.012267981
O  O2  1  0.98460000  0.39300000  0.00210000  1.0 0.012267981
O  O3  1  0.21230000  0.61490000  0.86710000  1.0 -0.5906297823
O  O4  1  0.61490000  0.21230000  0.13290000  1.0 -0.5906297823
O  O5  1  0.52910000  0.10330000  0.78780000  1.0 -0.6527925392
O  O6  1  0.10330000  0.52910000  0.21220000  1.0 -0.6527925392
O  O7  1  0.66250000  0.24670000  0.93210000  1.0 -0.606782045
O  O8  1  0.24670000  0.66250000  0.06790000  1.0 -0.606782045
O  O9  1  0.10190000  0.52730000  0.69600000  1.0 -0.6587749233
O  O10  1  0.52730000  0.10190000  0.30400000  1.0 -0.6587749233
O  O11  1  0.78670000  0.33350000  0.79420000  1.0 -0.6354143282
O  O12  1  0.33350000  0.78670000  0.20580000  1.0 -0.6354143282
O  O13  1  0.36490000  0.89730000  0.50480000  1.0 -0.0505916455
O  O14  1  0.89730000  0.36490000  0.49520000  1.0 -0.0505916455
O  O15  1  0.18390000  0.58170000  0.42790000  1.0 -0.1611943056
O  O16  1  0.58170000  0.18390000  0.57210000  1.0 -0.1611943056
O  O17  1  0.34030000  0.76670000  0.72310000  1.0 -0.5522379538
O  O18  1  0.76670000  0.34030000  0.27690000  1.0 -0.5522379538
O  O19  1  0.30820000  0.54260000  0.83170000  1.0 -0.6293941995
O  O20  1  0.54260000  0.30820000  0.16830000  1.0 -0.6293941995
O  O21  1  0.59070000  0.34390000  0.73590000  1.0 -0.6587749233
O  O22  1  0.34390000  0.59070000  0.26410000  1.0 -0.6587749233
