# DDEC6 charges by PACMAN v1.1 (https://github.com/mtap-research/PACMAN-charge/)
data_XUVQIQ_FSR_pacman
_symmetry_space_group_name_H-M   'P 1'
_cell_length_a   10.10850000
_cell_length_b   18.91800000
_cell_length_c   11.04380000
_cell_angle_alpha   90.00000000
_cell_angle_beta   110.98400000
_cell_angle_gamma   90.00000000
_symmetry_Int_Tables_number   1
_chemical_formula_structural   Cd3H15C27NO20
_chemical_formula_sum   'Cd6 H30 C54 N2 O40'
_cell_volume   1971.87209964
_cell_formula_units_Z   2
loop_
 _symmetry_equiv_pos_site_id
 _symmetry_equiv_pos_as_xyz
  1  'x, y, z'
loop_
 _atom_site_type_symbol
 _atom_site_label
 _atom_site_symmetry_multiplicity
 _atom_site_fract_x
 _atom_site_fract_y
 _atom_site_fract_z
 _atom_site_occupancy
 _atom_site_charge
Cd  Cd1  1  0.33506000  0.93974000  0.93881000  1.0 0.8995273911
Cd  Cd2  1  0.66494000  0.43974000  0.06119000  1.0 0.8995273911
Cd  Cd3  1  0.66494000  0.06026000  0.06119000  1.0 0.8995273911
Cd  Cd4  1  0.33506000  0.56026000  0.93881000  1.0 0.8995273911
Cd  Cd5  1  0.20198000  0.75000000  0.90090000  1.0 0.9304882788
Cd  Cd6  1  0.79802000  0.25000000  0.09910000  1.0 0.9304882788
H  H1  1  0.83980000  0.93930000  0.91010000  1.0 0.1502593361
H  H2  1  0.16020000  0.43930000  0.08990000  1.0 0.1502593361
H  H3  1  0.16020000  0.06070000  0.08990000  1.0 0.1502593361
H  H4  1  0.83980000  0.56070000  0.91010000  1.0 0.1502593361
H  H5  1  0.51720000  0.84190000  0.63540000  1.0 0.1311987629
H  H6  1  0.48280000  0.34190000  0.36460000  1.0 0.1311987629
H  H7  1  0.48280000  0.15810000  0.36460000  1.0 0.1311987629
H  H8  1  0.51720000  0.65810000  0.63540000  1.0 0.1311987629
H  H9  1  0.91100000  0.82680000  0.63070000  1.0 0.1311987629
H  H10  1  0.08900000  0.32680000  0.36930000  1.0 0.1311987629
H  H11  1  0.08900000  0.17320000  0.36930000  1.0 0.1311987629
H  H12  1  0.91100000  0.67320000  0.63070000  1.0 0.1311987629
H  H13  1  0.57880000  0.87180000  0.37320000  1.0 0.1311987629
H  H14  1  0.42120000  0.37180000  0.62680000  1.0 0.1311987629
H  H15  1  0.42120000  0.12820000  0.62680000  1.0 0.1311987629
H  H16  1  0.57880000  0.62820000  0.37320000  1.0 0.1311987629
H  H17  1  0.08310000  0.75000000  0.12930000  1.0 0.1445379905
H  H18  1  0.91690000  0.25000000  0.87070000  1.0 0.1445379905
H  H19  1  0.70080000  0.70390000  0.99090000  1.0 0.082337787
H  H20  1  0.29920000  0.20390000  0.00910000  1.0 0.082337787
H  H21  1  0.29920000  0.29610000  0.00910000  1.0 0.082337787
H  H22  1  0.70080000  0.79610000  0.99090000  1.0 0.082337787
H  H23  1  0.68410000  0.78420000  0.01780000  1.0 0.086100034
H  H24  1  0.31590000  0.28420000  0.98220000  1.0 0.086100034
H  H25  1  0.31590000  0.21580000  0.98220000  1.0 0.086100034
H  H26  1  0.68410000  0.71580000  0.01780000  1.0 0.086100034
H  H27  1  0.74850000  0.76190000  0.91370000  1.0 0.086100034
H  H28  1  0.25150000  0.26190000  0.08630000  1.0 0.086100034
H  H29  1  0.25150000  0.23810000  0.08630000  1.0 0.086100034
H  H30  1  0.74850000  0.73810000  0.91370000  1.0 0.086100034
C  C1  1  0.56100000  0.91510000  0.84890000  1.0 0.5242987476
C  C2  1  0.43900000  0.41510000  0.15110000  1.0 0.5242987476
C  C3  1  0.43900000  0.08490000  0.15110000  1.0 0.5242987476
C  C4  1  0.56100000  0.58490000  0.84890000  1.0 0.5242987476
C  C5  1  0.66310000  0.89340000  0.78430000  1.0 -0.0089692655
C  C6  1  0.33690000  0.39340000  0.21570000  1.0 -0.0089692655
C  C7  1  0.33690000  0.10660000  0.21570000  1.0 -0.0089692655
C  C8  1  0.66310000  0.60660000  0.78430000  1.0 -0.0089692655
C  C9  1  0.80610000  0.91060000  0.83700000  1.0 -0.1345652786
C  C10  1  0.19390000  0.41060000  0.16300000  1.0 -0.1345652786
C  C11  1  0.19390000  0.08940000  0.16300000  1.0 -0.1345652786
C  C12  1  0.80610000  0.58940000  0.83700000  1.0 -0.1345652786
C  C13  1  0.61310000  0.85290000  0.67150000  1.0 -0.1664724745
C  C14  1  0.38690000  0.35290000  0.32850000  1.0 -0.1664724745
C  C15  1  0.38690000  0.14710000  0.32850000  1.0 -0.1664724745
C  C16  1  0.61310000  0.64710000  0.67150000  1.0 -0.1664724745
C  C17  1  0.89830000  0.88480000  0.78030000  1.0 -0.0089692655
C  C18  1  0.10170000  0.38480000  0.21970000  1.0 -0.0089692655
C  C19  1  0.10170000  0.11520000  0.21970000  1.0 -0.0089692655
C  C20  1  0.89830000  0.61520000  0.78030000  1.0 -0.0089692655
C  C21  1  0.70500000  0.82870000  0.61260000  1.0 0.0670057047
C  C22  1  0.29500000  0.32870000  0.38740000  1.0 0.0670057047
C  C23  1  0.29500000  0.17130000  0.38740000  1.0 0.0670057047
C  C24  1  0.70500000  0.67130000  0.61260000  1.0 0.0670057047
C  C25  1  0.05330000  0.90080000  0.84050000  1.0 0.5486098729
C  C26  1  0.94670000  0.40080000  0.15950000  1.0 0.5486098729
C  C27  1  0.94670000  0.09920000  0.15950000  1.0 0.5486098729
C  C28  1  0.05330000  0.59920000  0.84050000  1.0 0.5486098729
C  C29  1  0.84830000  0.84380000  0.66810000  1.0 -0.1664724745
C  C30  1  0.15170000  0.34380000  0.33190000  1.0 -0.1664724745
C  C31  1  0.15170000  0.15620000  0.33190000  1.0 -0.1664724745
C  C32  1  0.84830000  0.65620000  0.66810000  1.0 -0.1664724745
C  C33  1  0.64590000  0.78630000  0.49020000  1.0 0.0372034624
C  C34  1  0.35410000  0.28630000  0.50980000  1.0 0.0372034624
C  C35  1  0.35410000  0.21370000  0.50980000  1.0 0.0372034624
C  C36  1  0.64590000  0.71370000  0.49020000  1.0 0.0372034624
C  C37  1  0.57800000  0.82260000  0.37280000  1.0 -0.1503335483
C  C38  1  0.42200000  0.32260000  0.62720000  1.0 -0.1503335483
C  C39  1  0.42200000  0.17740000  0.62720000  1.0 -0.1503335483
C  C40  1  0.57800000  0.67740000  0.37280000  1.0 -0.1503335483
C  C41  1  0.50970000  0.78750000  0.25600000  1.0 -0.110951424
C  C42  1  0.49030000  0.28750000  0.74400000  1.0 -0.110951424
C  C43  1  0.49030000  0.21250000  0.74400000  1.0 -0.110951424
C  C44  1  0.50970000  0.71250000  0.25600000  1.0 -0.110951424
C  C45  1  0.43820000  0.83120000  0.13690000  1.0 0.4201201998
C  C46  1  0.56180000  0.33120000  0.86310000  1.0 0.4201201998
C  C47  1  0.56180000  0.16880000  0.86310000  1.0 0.4201201998
C  C48  1  0.43820000  0.66880000  0.13690000  1.0 0.4201201998
C  C49  1  0.99910000  0.75000000  0.05800000  1.0 0.1837173455
C  C50  1  0.00090000  0.25000000  0.94200000  1.0 0.1837173455
C  C51  1  0.74210000  0.75000000  0.99600000  1.0 -0.280558864
C  C52  1  0.25790000  0.25000000  0.00400000  1.0 -0.280558864
C  C53  1  0.88000000  0.75000000  0.22700000  1.0 -0.1345652786
C  C54  1  0.12000000  0.25000000  0.77300000  1.0 -0.1345652786
N  N1  1  0.88090000  0.75000000  0.09350000  1.0 -0.0891994223
N  N2  1  0.11910000  0.25000000  0.90650000  1.0 -0.0891994223
O  O1  1  0.44320000  0.88400000  0.81420000  1.0 -0.5025664367
O  O2  1  0.55680000  0.38400000  0.18580000  1.0 -0.5025664367
O  O3  1  0.55680000  0.11600000  0.18580000  1.0 -0.5025664367
O  O4  1  0.44320000  0.61600000  0.81420000  1.0 -0.5025664367
O  O5  1  0.59500000  0.96020000  0.93410000  1.0 -0.5381889142
O  O6  1  0.40500000  0.46020000  0.06590000  1.0 -0.5381889142
O  O7  1  0.40500000  0.03980000  0.06590000  1.0 -0.5381889142
O  O8  1  0.59500000  0.53980000  0.93410000  1.0 -0.5381889142
O  O9  1  0.28560000  0.02750000  0.77970000  1.0 -0.0006742659
O  O10  1  0.71440000  0.52750000  0.22030000  1.0 0.0026998205
O  O11  1  0.71440000  0.97250000  0.22030000  1.0 0.0026998205
O  O12  1  0.28560000  0.47250000  0.77970000  1.0 -0.0006742659
O  O13  1  0.29810000  0.82340000  0.08170000  1.0 -0.3201646008
O  O14  1  0.70190000  0.32340000  0.91830000  1.0 -0.3201646008
O  O15  1  0.70190000  0.17660000  0.91830000  1.0 -0.3201646008
O  O16  1  0.29810000  0.67660000  0.08170000  1.0 -0.3201646008
O  O17  1  0.48910000  0.87850000  0.11100000  1.0 0.0026998205
O  O18  1  0.51090000  0.37850000  0.88900000  1.0 0.0026998205
O  O19  1  0.51090000  0.12150000  0.88900000  1.0 0.0026998205
O  O20  1  0.48910000  0.62150000  0.11100000  1.0 0.0026998205
O  O21  1  0.09660000  0.95030000  0.91330000  1.0 -0.4674180545
O  O22  1  0.90340000  0.45030000  0.08670000  1.0 -0.4674180545
O  O23  1  0.90340000  0.04970000  0.08670000  1.0 -0.4674180545
O  O24  1  0.09660000  0.54970000  0.91330000  1.0 -0.4674180545
O  O25  1  0.13910000  0.85950000  0.81220000  1.0 -0.5826242961
O  O26  1  0.86090000  0.35950000  0.18780000  1.0 -0.5826242961
O  O27  1  0.86090000  0.14050000  0.18780000  1.0 -0.5826242961
O  O28  1  0.13910000  0.64050000  0.81220000  1.0 -0.5826242961
O  O29  1  0.01750000  0.75000000  0.96960000  1.0 -0.3788558341
O  O30  1  0.98250000  0.25000000  0.03040000  1.0 -0.3788558341
O  O31  1  0.32460000  0.75000000  0.76030000  1.0 0.0614391301
O  O32  1  0.67540000  0.25000000  0.23970000  1.0 0.0614391301
O  O33  1  0.44420000  0.89630000  0.14540000  1.0 -0.1233601071
O  O34  1  0.55580000  0.39630000  0.85460000  1.0 -0.1233601071
O  O35  1  0.55580000  0.10370000  0.85460000  1.0 -0.1233601071
O  O36  1  0.44420000  0.60370000  0.14540000  1.0 -0.1233601071
O  O37  1  0.40970000  0.80010000  0.02830000  1.0 -0.2363169886
O  O38  1  0.59030000  0.30010000  0.97170000  1.0 -0.2363169886
O  O39  1  0.59030000  0.19990000  0.97170000  1.0 -0.2363169886
O  O40  1  0.40970000  0.69990000  0.02830000  1.0 -0.2363169886
