# DDEC6 charges by PACMAN v1.1 (https://github.com/mtap-research/PACMAN-charge/)
data_XUVREN_ASR_pacman
_symmetry_space_group_name_H-M   'P 1'
_cell_length_a   21.17900000
_cell_length_b   22.56000000
_cell_length_c   23.13800000
_cell_angle_alpha   105.30000000
_cell_angle_beta   114.19000000
_cell_angle_gamma   102.88000000
_symmetry_Int_Tables_number   1
_chemical_formula_structural   ZnH15C21N3O5
_chemical_formula_sum   'Zn8 H120 C168 N24 O40'
_cell_volume   9012.41427066
_cell_formula_units_Z   8
loop_
 _symmetry_equiv_pos_site_id
 _symmetry_equiv_pos_as_xyz
  1  'x, y, z'
loop_
 _atom_site_type_symbol
 _atom_site_label
 _atom_site_symmetry_multiplicity
 _atom_site_fract_x
 _atom_site_fract_y
 _atom_site_fract_z
 _atom_site_occupancy
 _atom_site_charge
Zn  Zn1  1  0.38126000  0.46643000  0.09423000  1.0 0.8296757135
Zn  Zn2  1  0.38886000  0.58934000  0.18517000  1.0 0.835023025
Zn  Zn3  1  0.35852000  0.05909000  0.68408000  1.0 0.8296757135
Zn  Zn4  1  0.40786000  0.99479000  0.59382000  1.0 0.7814343366
Zn  Zn5  1  0.61874000  0.53357000  0.90577000  1.0 0.8296757135
Zn  Zn6  1  0.61114000  0.41066000  0.81483000  1.0 0.835023025
Zn  Zn7  1  0.64148000  0.94091000  0.31592000  1.0 0.8296757135
Zn  Zn8  1  0.59214000  0.00521000  0.40618000  1.0 0.7814343366
H  H1  1  0.91460000  0.39550000  0.99500000  1.0 0.2707423298
H  H2  1  0.56470000  0.21830000  0.81380000  1.0 0.1201212101
H  H3  1  0.51600000  0.80410000  0.39310000  1.0 0.1291114767
H  H4  1  0.80590000  0.33740000  0.93660000  1.0 0.2808899972
H  H5  1  0.50600000  0.71530000  0.30620000  1.0 0.1106583541
H  H6  1  0.48600000  0.69420000  0.87920000  1.0 0.2707423298
H  H7  1  0.36200000  0.34960000  0.86840000  1.0 0.1291114767
H  H8  1  0.68160000  0.30090000  0.88820000  1.0 0.1291114767
H  H9  1  0.43860000  0.55100000  0.96800000  1.0 0.1106583541
H  H10  1  0.14740000  0.53530000  0.11070000  1.0 0.1106583541
H  H11  1  0.36430000  0.32340000  0.06110000  1.0 0.1106583541
H  H12  1  0.30110000  0.19520000  0.58990000  1.0 0.1201212101
H  H13  1  0.86090000  0.63260000  0.32020000  1.0 0.2707423298
H  H14  1  0.45810000  0.59970000  0.89880000  1.0 0.1201212101
H  H15  1  0.27400000  0.29830000  0.44900000  1.0 0.2707423298
H  H16  1  0.63240000  0.68270000  0.30900000  1.0 0.1106583541
H  H17  1  0.35190000  0.23290000  0.97370000  1.0 0.1291114767
H  H18  1  0.75990000  0.72380000  0.36180000  1.0 0.1291114767
H  H19  1  0.77530000  0.19210000  0.80550000  1.0 0.1291114767
H  H20  1  0.35670000  0.10090000  0.45600000  1.0 0.1106583541
H  H21  1  0.65760000  0.11320000  0.72570000  1.0 0.1106583541
H  H22  1  0.37140000  0.43620000  0.95720000  1.0 0.1106583541
H  H23  1  0.02330000  0.48700000  0.06540000  1.0 0.1201212101
H  H24  1  0.28110000  0.26640000  0.53450000  1.0 0.1291114767
H  H25  1  0.48940000  0.75380000  0.82610000  1.0 0.2707423298
H  H26  1  0.33780000  0.17090000  0.40130000  1.0 0.1357427797
H  H27  1  0.28310000  0.35860000  0.39670000  1.0 0.2808899972
H  H28  1  0.62100000  0.51220000  0.18500000  1.0 0.1106583541
H  H29  1  0.41650000  0.71220000  0.06980000  1.0 0.1106583541
H  H30  1  0.43560000  0.76210000  0.00090000  1.0 0.1291114767
H  H31  1  0.11510000  0.92480000  0.56930000  1.0 0.1201212101
H  H32  1  0.96800000  0.69340000  0.36680000  1.0 0.289236823
H  H33  1  0.40180000  0.28700000  0.82070000  1.0 0.1291114767
H  H34  1  0.74710000  0.55090000  0.23810000  1.0 0.1291114767
H  H35  1  0.14290000  0.37600000  0.97580000  1.0 0.1291114767
H  H36  1  0.01710000  0.32650000  0.92770000  1.0 0.1357427797
H  H37  1  0.31940000  0.07180000  0.79750000  1.0 0.1201212101
H  H38  1  0.40220000  0.95010000  0.81880000  1.0 0.1201212101
H  H39  1  0.31730000  0.28350000  0.26610000  1.0 0.1291114767
H  H40  1  0.34880000  0.50680000  0.31680000  1.0 0.1291114767
H  H41  1  0.31100000  0.15290000  0.87610000  1.0 0.1291114767
H  H42  1  0.29730000  0.71650000  0.32030000  1.0 0.1357427797
H  H43  1  0.20110000  0.83490000  0.46030000  1.0 0.1106583541
H  H44  1  0.34510000  0.33470000  0.20290000  1.0 0.1201212101
H  H45  1  0.00100000  0.83620000  0.49880000  1.0 0.1291114767
H  H46  1  0.46410000  0.86090000  0.68810000  1.0 0.1201212101
H  H47  1  0.32400000  0.45790000  0.38170000  1.0 0.1201212101
H  H48  1  0.29130000  0.63130000  0.23430000  1.0 0.1106583541
H  H49  1  0.40220000  0.20020000  0.73980000  1.0 0.1106583541
H  H50  1  0.41950000  0.87770000  0.87130000  1.0 0.1357427797
H  H51  1  0.08810000  0.74960000  0.39120000  1.0 0.1201212101
H  H52  1  0.47700000  0.78580000  0.73490000  1.0 0.1291114767
H  H53  1  0.32160000  0.92450000  0.44340000  1.0 0.1201212101
H  H54  1  0.31930000  0.84330000  0.35420000  1.0 0.1011007545
H  H55  1  0.51240000  0.93590000  0.57210000  1.0 0.1291114767
H  H56  1  0.51040000  0.84300000  0.49790000  1.0 0.1011007545
H  H57  1  0.34650000  0.76360000  0.45010000  1.0 0.1011007545
H  H58  1  0.35260000  0.85220000  0.53310000  1.0 0.1291114767
H  H59  1  0.49170000  0.89950000  0.43340000  1.0 0.1201212101
H  H60  1  0.46810000  0.97840000  0.49560000  1.0 0.0895038232
H  H61  1  0.08540000  0.60450000  0.00500000  1.0 0.2707423298
H  H62  1  0.43530000  0.78170000  0.18620000  1.0 0.1201212101
H  H63  1  0.48400000  0.19590000  0.60690000  1.0 0.1291114767
H  H64  1  0.19410000  0.66260000  0.06340000  1.0 0.2808899972
H  H65  1  0.49400000  0.28470000  0.69380000  1.0 0.1106583541
H  H66  1  0.51400000  0.30580000  0.12080000  1.0 0.2707423298
H  H67  1  0.63800000  0.65040000  0.13160000  1.0 0.1291114767
H  H68  1  0.31840000  0.69910000  0.11180000  1.0 0.1291114767
H  H69  1  0.56140000  0.44900000  0.03200000  1.0 0.1106583541
H  H70  1  0.85260000  0.46470000  0.88930000  1.0 0.1106583541
H  H71  1  0.63570000  0.67660000  0.93890000  1.0 0.1106583541
H  H72  1  0.69890000  0.80480000  0.41010000  1.0 0.1201212101
H  H73  1  0.13910000  0.36740000  0.67980000  1.0 0.2707423298
H  H74  1  0.54190000  0.40030000  0.10120000  1.0 0.1201212101
H  H75  1  0.72600000  0.70170000  0.55100000  1.0 0.2707423298
H  H76  1  0.36760000  0.31730000  0.69100000  1.0 0.1106583541
H  H77  1  0.64810000  0.76710000  0.02630000  1.0 0.1291114767
H  H78  1  0.24010000  0.27620000  0.63820000  1.0 0.1291114767
H  H79  1  0.22470000  0.80790000  0.19450000  1.0 0.1291114767
H  H80  1  0.64330000  0.89910000  0.54400000  1.0 0.1106583541
H  H81  1  0.34240000  0.88680000  0.27430000  1.0 0.1106583541
H  H82  1  0.62860000  0.56380000  0.04280000  1.0 0.1106583541
H  H83  1  0.97670000  0.51300000  0.93460000  1.0 0.1201212101
H  H84  1  0.71890000  0.73360000  0.46550000  1.0 0.1291114767
H  H85  1  0.51060000  0.24620000  0.17390000  1.0 0.2707423298
H  H86  1  0.66220000  0.82910000  0.59870000  1.0 0.1357427797
H  H87  1  0.71690000  0.64140000  0.60330000  1.0 0.2808899972
H  H88  1  0.37900000  0.48780000  0.81500000  1.0 0.1106583541
H  H89  1  0.58350000  0.28780000  0.93020000  1.0 0.1106583541
H  H90  1  0.56440000  0.23790000  0.99910000  1.0 0.1291114767
H  H91  1  0.88490000  0.07520000  0.43070000  1.0 0.1201212101
H  H92  1  0.03200000  0.30660000  0.63320000  1.0 0.289236823
H  H93  1  0.59820000  0.71300000  0.17930000  1.0 0.1291114767
H  H94  1  0.25290000  0.44910000  0.76190000  1.0 0.1201212101
H  H95  1  0.85710000  0.62400000  0.02420000  1.0 0.1291114767
H  H96  1  0.98290000  0.67350000  0.07230000  1.0 0.1357427797
H  H97  1  0.68060000  0.92820000  0.20250000  1.0 0.1201212101
H  H98  1  0.59780000  0.04990000  0.18120000  1.0 0.1201212101
H  H99  1  0.68270000  0.71650000  0.73390000  1.0 0.1291114767
H  H100  1  0.65120000  0.49320000  0.68320000  1.0 0.1291114767
H  H101  1  0.68900000  0.84710000  0.12390000  1.0 0.1291114767
H  H102  1  0.70270000  0.28350000  0.67970000  1.0 0.1357427797
H  H103  1  0.79890000  0.16510000  0.53970000  1.0 0.1106583541
H  H104  1  0.65490000  0.66530000  0.79710000  1.0 0.1201212101
H  H105  1  0.99900000  0.16380000  0.50120000  1.0 0.1291114767
H  H106  1  0.53590000  0.13910000  0.31190000  1.0 0.1201212101
H  H107  1  0.67600000  0.54210000  0.61830000  1.0 0.1201212101
H  H108  1  0.70870000  0.36870000  0.76570000  1.0 0.1106583541
H  H109  1  0.59780000  0.79980000  0.26020000  1.0 0.1106583541
H  H110  1  0.58050000  0.12230000  0.12870000  1.0 0.1357427797
H  H111  1  0.91190000  0.25040000  0.60880000  1.0 0.1201212101
H  H112  1  0.52300000  0.21420000  0.26510000  1.0 0.1291114767
H  H113  1  0.67840000  0.07550000  0.55660000  1.0 0.1201212101
H  H114  1  0.68070000  0.15670000  0.64580000  1.0 0.1011007545
H  H115  1  0.48760000  0.06410000  0.42790000  1.0 0.1291114767
H  H116  1  0.48960000  0.15700000  0.50210000  1.0 0.1011007545
H  H117  1  0.65350000  0.23640000  0.54990000  1.0 0.1011007545
H  H118  1  0.64740000  0.14780000  0.46690000  1.0 0.1291114767
H  H119  1  0.50830000  0.10050000  0.56660000  1.0 0.1201212101
H  H120  1  0.53190000  0.02160000  0.50440000  1.0 0.0895038232
C  C1  1  0.35970000  0.28310000  0.91440000  1.0 0.1106583541
C  C2  1  0.40600000  0.76950000  0.36440000  1.0 0.1106583541
C  C3  1  0.60680000  0.21320000  0.81080000  1.0 -0.0884499259
C  C4  1  0.40610000  0.59170000  0.06700000  1.0 0.5710386811
C  C5  1  0.46900000  0.76910000  0.36070000  1.0 -0.1896402311
C  C6  1  0.42210000  0.62460000  0.02500000  1.0 -0.0693519943
C  C7  1  0.46230000  0.71610000  0.30830000  1.0 0.0804293621
C  C8  1  0.52980000  0.56810000  0.20820000  1.0 0.5710386811
C  C9  1  0.73900000  0.25460000  0.85470000  1.0 0.2287187967
C  C10  1  0.36330000  0.34370000  0.90800000  1.0 -0.1896402311
C  C11  1  0.67630000  0.26160000  0.85560000  1.0 -0.208965607
C  C12  1  0.35670000  0.22930000  0.85970000  1.0 0.1106583541
C  C13  1  0.43700000  0.59390000  0.97440000  1.0 -0.0884499259
C  C14  1  0.12120000  0.49280000  0.07360000  1.0 -0.0996633154
C  C15  1  0.61100000  0.59290000  0.24120000  1.0 -0.0693519943
C  C16  1  0.36430000  0.32870000  0.02180000  1.0 0.0804293621
C  C17  1  0.30930000  0.19020000  0.55180000  1.0 -0.0996633154
C  C18  1  0.33350000  0.14090000  0.53090000  1.0 -0.052332099
C  C19  1  0.24290000  0.49260000  0.07850000  1.0 0.5710386811
C  C20  1  0.44950000  0.62300000  0.93370000  1.0 -0.208965607
C  C21  1  0.16110000  0.46240000  0.04880000  1.0 -0.052332099
C  C22  1  0.59760000  0.15580000  0.76030000  1.0 -0.0434552264
C  C23  1  0.24500000  0.94400000  0.56910000  1.0 0.5710386811
C  C24  1  0.65600000  0.65580000  0.29420000  1.0 -0.0996633154
C  C25  1  0.40980000  0.82450000  0.41990000  1.0 0.0627408791
C  C26  1  0.35770000  0.27450000  0.97020000  1.0 -0.1981762125
C  C27  1  0.73180000  0.68070000  0.32570000  1.0 -0.1896402311
C  C28  1  0.73250000  0.19790000  0.80620000  1.0 -0.1896402311
C  C29  1  0.34200000  0.13540000  0.47290000  1.0 -0.1061415406
C  C30  1  0.52170000  0.10530000  0.70840000  1.0 0.5604049716
C  C31  1  0.17290000  0.89000000  0.52600000  1.0 -0.0835316921
C  C32  1  0.35010000  0.09740000  0.56820000  1.0 0.5604049716
C  C33  1  0.44980000  0.68620000  0.94210000  1.0 0.2493540936
C  C34  1  0.66270000  0.15110000  0.76000000  1.0 -0.1061415406
C  C35  1  0.36880000  0.39490000  0.96100000  1.0 0.0895038232
C  C36  1  0.42730000  0.91250000  0.74540000  1.0 -0.0996633154
C  C37  1  0.04780000  0.46400000  0.04700000  1.0 -0.208965607
C  C38  1  0.29690000  0.23250000  0.51840000  1.0 -0.208965607
C  C39  1  0.33030000  0.17620000  0.43980000  1.0 -0.1694443282
C  C40  1  0.41400000  0.95690000  0.71170000  1.0 0.5710386811
C  C41  1  0.76780000  0.64250000  0.30490000  1.0 0.2493540936
C  C42  1  0.00490000  0.40030000  0.99230000  1.0 0.2634526882
C  C43  1  0.64910000  0.55520000  0.22130000  1.0 -0.0884499259
C  C44  1  0.42400000  0.68870000  0.03410000  1.0 -0.0884499259
C  C45  1  0.43620000  0.71890000  0.99390000  1.0 -0.1896402311
C  C46  1  0.11040000  0.88840000  0.53360000  1.0 -0.0693519943
C  C47  1  0.36520000  0.45730000  0.20650000  1.0 0.5758960637
C  C48  1  0.38320000  0.24280000  0.81660000  1.0 -0.1896402311
C  C49  1  0.45450000  0.77070000  0.89150000  1.0 0.5710386811
C  C50  1  0.72350000  0.57830000  0.25210000  1.0 -0.1981762125
C  C51  1  0.87720000  0.31690000  0.91360000  1.0 0.5710386811
C  C52  1  0.11790000  0.39870000  0.99370000  1.0 -0.0884499259
C  C53  1  0.30700000  0.22660000  0.46260000  1.0 0.2493540936
C  C54  1  0.04350000  0.36860000  0.96540000  1.0 -0.1795953544
C  C55  1  0.33333333  0.11580000  0.79990000  1.0 0.0895038232
C  C56  1  0.31690000  0.36430000  0.33230000  1.0 0.2707423298
C  C57  1  0.34810000  0.42530000  0.24930000  1.0 -0.052332099
C  C58  1  0.41760000  0.91630000  0.80180000  1.0 -0.0693519943
C  C59  1  0.32370000  0.32890000  0.27690000  1.0 -0.1795953544
C  C60  1  0.34220000  0.46140000  0.30620000  1.0 -0.0835316921
C  C61  1  0.33120000  0.16500000  0.84910000  1.0 -0.1981762125
C  C62  1  0.34130000  0.71790000  0.31780000  1.0 -0.1896402311
C  C63  1  0.03500000  0.78490000  0.43940000  1.0 0.2207711208
C  C64  1  0.31370000  0.28410000  0.38620000  1.0 0.5535716209
C  C65  1  0.16130000  0.83560000  0.46920000  1.0 -0.0884499259
C  C66  1  0.33940000  0.35970000  0.23920000  1.0 -0.0835316921
C  C67  1  0.04200000  0.83620000  0.49160000  1.0 -0.1896402311
C  C68  1  0.89760000  0.72510000  0.38170000  1.0 0.5535716209
C  C69  1  0.45490000  0.82510000  0.81210000  1.0 0.2707423298
C  C70  1  0.45340000  0.86340000  0.72450000  1.0 -0.0693519943
C  C71  1  0.32760000  0.43230000  0.34420000  1.0 -0.1795953544
C  C72  1  0.33780000  0.66690000  0.26650000  1.0 0.0895038232
C  C73  1  0.38180000  0.19020000  0.76740000  1.0 0.0895038232
C  C74  1  0.42890000  0.87410000  0.83410000  1.0 -0.1896402311
C  C75  1  0.09460000  0.78550000  0.42850000  1.0 -0.1896402311
C  C76  1  0.46350000  0.82050000  0.75360000  1.0 -0.1896402311
C  C77  1  0.35830000  0.90530000  0.45390000  1.0 -0.0125394706
C  C78  1  0.35540000  0.85610000  0.40110000  1.0 -0.1472084206
C  C79  1  0.46740000  0.90950000  0.52950000  1.0 0.005360919
C  C80  1  0.46900000  0.85630000  0.48410000  1.0 -0.1061415406
C  C81  1  0.37190000  0.80810000  0.45870000  1.0 -0.1472084206
C  C82  1  0.37580000  0.86040000  0.50700000  1.0 -0.0648288076
C  C83  1  0.45430000  0.88730000  0.44530000  1.0 -0.0693519943
C  C84  1  0.44550000  0.93390000  0.48880000  1.0 0.0030402002
C  C85  1  0.64030000  0.71690000  0.08560000  1.0 0.1106583541
C  C86  1  0.59400000  0.23050000  0.63560000  1.0 0.1106583541
C  C87  1  0.39320000  0.78680000  0.18920000  1.0 -0.0884499259
C  C88  1  0.59390000  0.40830000  0.93300000  1.0 0.5710386811
C  C89  1  0.53100000  0.23090000  0.63930000  1.0 -0.1981762125
C  C90  1  0.57790000  0.37540000  0.97500000  1.0 -0.0693519943
C  C91  1  0.53770000  0.28390000  0.69170000  1.0 0.0804293621
C  C92  1  0.47020000  0.43190000  0.79180000  1.0 0.5710386811
C  C93  1  0.26100000  0.74540000  0.14530000  1.0 0.2287187967
C  C94  1  0.63670000  0.65630000  0.09200000  1.0 -0.1896402311
C  C95  1  0.32370000  0.73840000  0.14440000  1.0 -0.208965607
C  C96  1  0.64330000  0.77070000  0.14030000  1.0 0.1106583541
C  C97  1  0.56300000  0.40610000  0.02560000  1.0 -0.0884499259
C  C98  1  0.87880000  0.50720000  0.92640000  1.0 -0.0996633154
C  C99  1  0.38900000  0.40710000  0.75880000  1.0 -0.0693519943
C  C100  1  0.63570000  0.67130000  0.97820000  1.0 0.0804293621
C  C101  1  0.69070000  0.80980000  0.44820000  1.0 -0.0996633154
C  C102  1  0.66650000  0.85910000  0.46910000  1.0 -0.052332099
C  C103  1  0.75710000  0.50740000  0.92150000  1.0 0.5710386811
C  C104  1  0.55050000  0.37700000  0.06630000  1.0 -0.208965607
C  C105  1  0.83890000  0.53760000  0.95120000  1.0 -0.052332099
C  C106  1  0.40240000  0.84420000  0.23970000  1.0 -0.0434552264
C  C107  1  0.75500000  0.05600000  0.43090000  1.0 0.5710386811
C  C108  1  0.34400000  0.34420000  0.70580000  1.0 -0.0996633154
C  C109  1  0.59020000  0.17550000  0.58010000  1.0 0.0627408791
C  C110  1  0.64230000  0.72550000  0.02980000  1.0 -0.1981762125
C  C111  1  0.26820000  0.31930000  0.67430000  1.0 -0.1896402311
C  C112  1  0.26750000  0.80210000  0.19380000  1.0 -0.1896402311
C  C113  1  0.65800000  0.86460000  0.52710000  1.0 -0.1061415406
C  C114  1  0.47830000  0.89470000  0.29160000  1.0 0.5604049716
C  C115  1  0.82710000  0.11000000  0.47400000  1.0 -0.0835316921
C  C116  1  0.64990000  0.90260000  0.43180000  1.0 0.5604049716
C  C117  1  0.55020000  0.31380000  0.05790000  1.0 0.2493540936
C  C118  1  0.33730000  0.84890000  0.24000000  1.0 -0.1061415406
C  C119  1  0.63120000  0.60510000  0.03900000  1.0 0.0895038232
C  C120  1  0.57270000  0.08750000  0.25460000  1.0 -0.0996633154
C  C121  1  0.95220000  0.53600000  0.95300000  1.0 -0.208965607
C  C122  1  0.70310000  0.76750000  0.48160000  1.0 -0.208965607
C  C123  1  0.66970000  0.82380000  0.56020000  1.0 -0.1694443282
C  C124  1  0.58600000  0.04310000  0.28830000  1.0 0.5710386811
C  C125  1  0.23220000  0.35750000  0.69510000  1.0 0.2493540936
C  C126  1  0.99510000  0.59970000  0.00770000  1.0 0.2634526882
C  C127  1  0.35090000  0.44480000  0.77870000  1.0 -0.0884499259
C  C128  1  0.57600000  0.31130000  0.96590000  1.0 -0.0884499259
C  C129  1  0.56380000  0.28110000  0.00610000  1.0 -0.1896402311
C  C130  1  0.88960000  0.11160000  0.46640000  1.0 -0.0693519943
C  C131  1  0.63480000  0.54270000  0.79350000  1.0 0.5758960637
C  C132  1  0.61680000  0.75720000  0.18340000  1.0 -0.1896402311
C  C133  1  0.54550000  0.22930000  0.10850000  1.0 0.5710386811
C  C134  1  0.27650000  0.42170000  0.74790000  1.0 -0.1981762125
C  C135  1  0.12280000  0.68310000  0.08640000  1.0 0.5710386811
C  C136  1  0.88210000  0.60130000  0.00630000  1.0 -0.0884499259
C  C137  1  0.69300000  0.77340000  0.53740000  1.0 0.2493540936
C  C138  1  0.95650000  0.63140000  0.03460000  1.0 -0.1795953544
C  C139  1  0.66666667  0.88420000  0.20010000  1.0 0.0895038232
C  C140  1  0.68310000  0.63570000  0.66770000  1.0 0.2707423298
C  C141  1  0.65190000  0.57470000  0.75070000  1.0 -0.052332099
C  C142  1  0.58240000  0.08370000  0.19820000  1.0 -0.0693519943
C  C143  1  0.67630000  0.67110000  0.72310000  1.0 -0.1795953544
C  C144  1  0.65780000  0.53860000  0.69380000  1.0 -0.0835316921
C  C145  1  0.66880000  0.83500000  0.15090000  1.0 -0.1981762125
C  C146  1  0.65870000  0.28210000  0.68220000  1.0 -0.1896402311
C  C147  1  0.96500000  0.21510000  0.56060000  1.0 0.2207711208
C  C148  1  0.68630000  0.71590000  0.61380000  1.0 0.5604049716
C  C149  1  0.83870000  0.16440000  0.53080000  1.0 -0.0884499259
C  C150  1  0.66060000  0.64030000  0.76080000  1.0 -0.0835316921
C  C151  1  0.95800000  0.16380000  0.50840000  1.0 -0.1896402311
C  C152  1  0.10240000  0.27490000  0.61830000  1.0 0.5535716209
C  C153  1  0.54510000  0.17490000  0.18790000  1.0 0.2707423298
C  C154  1  0.54660000  0.13660000  0.27550000  1.0 -0.0693519943
C  C155  1  0.67240000  0.56770000  0.65580000  1.0 -0.1795953544
C  C156  1  0.66220000  0.33310000  0.73350000  1.0 0.0895038232
C  C157  1  0.61820000  0.80980000  0.23260000  1.0 0.0804293621
C  C158  1  0.57110000  0.12590000  0.16590000  1.0 -0.1896402311
C  C159  1  0.90540000  0.21450000  0.57150000  1.0 -0.1896402311
C  C160  1  0.53650000  0.17950000  0.24640000  1.0 -0.1896402311
C  C161  1  0.64170000  0.09470000  0.54610000  1.0 -0.0125394706
C  C162  1  0.64460000  0.14390000  0.59890000  1.0 -0.1472084206
C  C163  1  0.53260000  0.09050000  0.47050000  1.0 0.005360919
C  C164  1  0.53100000  0.14370000  0.51590000  1.0 -0.1061415406
C  C165  1  0.62810000  0.19190000  0.54130000  1.0 -0.1472084206
C  C166  1  0.62420000  0.13960000  0.49300000  1.0 -0.0693519943
C  C167  1  0.54570000  0.11270000  0.55470000  1.0 -0.0693519943
C  C168  1  0.55450000  0.06610000  0.51120000  1.0 0.0030402002
N  N1  1  0.39710000  0.66619000  0.26070000  1.0 -0.2193591763
N  N2  1  0.37060000  0.38773000  0.01812000  1.0 -0.2193591763
N  N3  1  0.41270000  0.92620000  0.52000000  1.0 0.0030402002
N  N4  1  0.35380000  0.12772000  0.75700000  1.0 -0.1981762125
N  N5  1  0.93050000  0.37360000  0.97010000  1.0 -0.3964382914
N  N6  1  0.80820000  0.30690000  0.90560000  1.0 -0.419954688
N  N7  1  0.46620000  0.71370000  0.90150000  1.0 -0.419954688
N  N8  1  0.84400000  0.66270000  0.33370000  1.0 -0.4148709384
N  N9  1  0.29530000  0.27310000  0.43460000  1.0 -0.419954688
N  N10  1  0.46910000  0.77950000  0.84140000  1.0 -0.4295295683
N  N11  1  0.30230000  0.33820000  0.37430000  1.0 -0.4421798793
N  N12  1  0.96540000  0.72880000  0.39170000  1.0 -0.4579872695
N  N13  1  0.60290000  0.33381000  0.73930000  1.0 -0.2193591763
N  N14  1  0.62940000  0.61227000  0.98188000  1.0 -0.2193591763
N  N15  1  0.58730000  0.07380000  0.48000000  1.0 0.0030402002
N  N16  1  0.64620000  0.87228000  0.24300000  1.0 -0.1981762125
N  N17  1  0.06950000  0.62640000  0.02990000  1.0 -0.3964382914
N  N18  1  0.19180000  0.69310000  0.09440000  1.0 -0.419954688
N  N19  1  0.53380000  0.28630000  0.09850000  1.0 -0.419954688
N  N20  1  0.15600000  0.33730000  0.66630000  1.0 -0.4148709384
N  N21  1  0.70470000  0.72690000  0.56540000  1.0 -0.419954688
N  N22  1  0.53090000  0.22050000  0.15860000  1.0 -0.4295295683
N  N23  1  0.69770000  0.66180000  0.62570000  1.0 -0.4421798793
N  N24  1  0.03460000  0.27120000  0.60830000  1.0 -0.4579872695
O  O1  1  0.27519000  0.54833000  0.12694000  1.0 -0.5494391279
O  O2  1  0.49801000  0.60537000  0.22361000  1.0 -0.5494391279
O  O3  1  0.33461000  0.10280000  0.61514000  1.0 -0.5302660671
O  O4  1  0.51523000  0.06023000  0.65834000  1.0 -0.5494391279
O  O5  1  0.49331000  0.50764000  0.16354000  1.0 -0.5494391279
O  O6  1  0.36520000  0.42206000  0.15513000  1.0 -0.5393679348
O  O7  1  0.39589000  0.62334000  0.11416000  1.0 -0.5494391279
O  O8  1  0.46923000  0.11022000  0.71879000  1.0 -0.5598459946
O  O9  1  0.29441000  0.94509000  0.55269000  1.0 -0.5675364938
O  O10  1  0.38118000  0.05982000  0.55122000  1.0 -0.5598459946
O  O11  1  0.25441000  0.98816000  0.62282000  1.0 -0.5393679348
O  O12  1  0.27423000  0.46129000  0.05458000  1.0 -0.5302660671
O  O13  1  0.40280000  0.53262000  0.05307000  1.0 -0.5598459946
O  O14  1  0.38880000  0.99889000  0.73159000  1.0 -0.5302660671
O  O15  1  0.42360000  0.94879000  0.66078000  1.0 -0.5494391279
O  O16  1  0.37930000  0.51931000  0.22579000  1.0 -0.5675364938
O  O17  1  0.89050000  0.27860000  0.87450000  1.0 -0.4809419123
O  O18  1  0.88270000  0.76890000  0.40760000  1.0 -0.4809419123
O  O19  1  0.33590000  0.24920000  0.35630000  1.0 -0.4937980083
O  O20  1  0.42450000  0.80060000  0.91630000  1.0 -0.471339604
O  O21  1  0.72481000  0.45167000  0.87306000  1.0 -0.5494391279
O  O22  1  0.50199000  0.39463000  0.77639000  1.0 -0.5494391279
O  O23  1  0.66539000  0.89720000  0.38486000  1.0 -0.5302660671
O  O24  1  0.48477000  0.93977000  0.34166000  1.0 -0.5494391279
O  O25  1  0.50669000  0.49236000  0.83646000  1.0 -0.5494391279
O  O26  1  0.63480000  0.57794000  0.84487000  1.0 -0.5393679348
O  O27  1  0.60411000  0.37666000  0.88584000  1.0 -0.5494391279
O  O28  1  0.53077000  0.88978000  0.28121000  1.0 -0.5598459946
O  O29  1  0.70559000  0.05491000  0.44731000  1.0 -0.5675364938
O  O30  1  0.61882000  0.94018000  0.44878000  1.0 -0.5598459946
O  O31  1  0.74559000  0.01184000  0.37718000  1.0 -0.5393679348
O  O32  1  0.72577000  0.53871000  0.94542000  1.0 -0.5302660671
O  O33  1  0.59720000  0.46738000  0.94693000  1.0 -0.5598459946
O  O34  1  0.61120000  0.00111000  0.26841000  1.0 -0.5302660671
O  O35  1  0.57640000  0.05121000  0.33922000  1.0 -0.5494391279
O  O36  1  0.62070000  0.48069000  0.77421000  1.0 -0.5675364938
O  O37  1  0.10950000  0.72140000  0.12550000  1.0 -0.4809419123
O  O38  1  0.11730000  0.23110000  0.59240000  1.0 -0.4809419123
O  O39  1  0.66410000  0.75080000  0.64370000  1.0 -0.4937980083
O  O40  1  0.57550000  0.19940000  0.08370000  1.0 -0.471339604
