# DDEC6 charges by PACMAN v1.1 (https://github.com/mtap-research/PACMAN-charge/)
data_XUWMIO_ASR_pacman
_symmetry_space_group_name_H-M   'P 1'
_cell_length_a   24.34090000
_cell_length_b   24.34090000
_cell_length_c   14.83120000
_cell_angle_alpha   90.00000000
_cell_angle_beta   90.00000000
_cell_angle_gamma   90.00000000
_symmetry_Int_Tables_number   1
_chemical_formula_structural   Zr3H16C36(OF2)12
_chemical_formula_sum   'Zr12 H64 C144 O48 F96'
_cell_volume   8787.18066727
_cell_formula_units_Z   4
loop_
 _symmetry_equiv_pos_site_id
 _symmetry_equiv_pos_as_xyz
  1  'x, y, z'
loop_
 _atom_site_type_symbol
 _atom_site_label
 _atom_site_symmetry_multiplicity
 _atom_site_fract_x
 _atom_site_fract_y
 _atom_site_fract_z
 _atom_site_occupancy
 _atom_site_charge
Zr  Zr1  1  0.00000000  0.39971000  0.00000000  1.0 2.383991197
Zr  Zr2  1  0.00000000  0.60029000  0.00000000  1.0 2.383991197
Zr  Zr3  1  0.39971000  0.00000000  0.50000000  1.0 2.383991197
Zr  Zr4  1  0.60029000  0.00000000  0.50000000  1.0 2.383991197
Zr  Zr5  1  0.07254000  0.50000000  0.11853000  1.0 2.4969144615
Zr  Zr6  1  0.92746000  0.50000000  0.11853000  1.0 2.4969144615
Zr  Zr7  1  0.50000000  0.92746000  0.61853000  1.0 2.4969144615
Zr  Zr8  1  0.50000000  0.07254000  0.61853000  1.0 2.4969144615
Zr  Zr9  1  0.07254000  0.50000000  0.88147000  1.0 2.4969144615
Zr  Zr10  1  0.92746000  0.50000000  0.88147000  1.0 2.4969144615
Zr  Zr11  1  0.50000000  0.07254000  0.38147000  1.0 2.4969144615
Zr  Zr12  1  0.50000000  0.92746000  0.38147000  1.0 2.4969144615
H  H1  1  0.10080000  0.26280000  0.09480000  1.0 0.1091841974
H  H2  1  0.16650000  0.37320000  0.26740000  1.0 0.1091841974
H  H3  1  0.22590000  0.30500000  0.32550000  1.0 0.1895585938
H  H4  1  0.16400000  0.19720000  0.14370000  1.0 0.16857819
H  H5  1  0.89920000  0.73720000  0.09480000  1.0 0.1091841974
H  H6  1  0.83350000  0.62680000  0.26740000  1.0 0.1091841974
H  H7  1  0.77410000  0.69500000  0.32550000  1.0 0.1895585938
H  H8  1  0.83600000  0.80280000  0.14370000  1.0 0.16857819
H  H9  1  0.26280000  0.89920000  0.59480000  1.0 0.1091841974
H  H10  1  0.37320000  0.83350000  0.76740000  1.0 0.1091841974
H  H11  1  0.30500000  0.77410000  0.82550000  1.0 0.1895585938
H  H12  1  0.19720000  0.83600000  0.64370000  1.0 0.16857819
H  H13  1  0.73720000  0.10080000  0.59480000  1.0 0.1091841974
H  H14  1  0.62680000  0.16650000  0.76740000  1.0 0.1091841974
H  H15  1  0.69500000  0.22590000  0.82550000  1.0 0.1895585938
H  H16  1  0.80280000  0.16400000  0.64370000  1.0 0.16857819
H  H17  1  0.10080000  0.73720000  0.90520000  1.0 0.1091841974
H  H18  1  0.16650000  0.62680000  0.73260000  1.0 0.1091841974
H  H19  1  0.22590000  0.69500000  0.67450000  1.0 0.1895585938
H  H20  1  0.16400000  0.80280000  0.85630000  1.0 0.16857819
H  H21  1  0.89920000  0.26280000  0.90520000  1.0 0.1091841974
H  H22  1  0.83350000  0.37320000  0.73260000  1.0 0.1091841974
H  H23  1  0.77410000  0.30500000  0.67450000  1.0 0.1895585938
H  H24  1  0.83600000  0.19720000  0.85630000  1.0 0.16857819
H  H25  1  0.26280000  0.10080000  0.40520000  1.0 0.1091841974
H  H26  1  0.37320000  0.16650000  0.23260000  1.0 0.1091841974
H  H27  1  0.30500000  0.22590000  0.17450000  1.0 0.1895585938
H  H28  1  0.19720000  0.16400000  0.35630000  1.0 0.16857819
H  H29  1  0.73720000  0.89920000  0.40520000  1.0 0.1091841974
H  H30  1  0.62680000  0.83350000  0.23260000  1.0 0.1091841974
H  H31  1  0.69500000  0.77410000  0.17450000  1.0 0.1895585938
H  H32  1  0.80280000  0.83600000  0.35630000  1.0 0.16857819
H  H33  1  0.89920000  0.73720000  0.90520000  1.0 0.1091841974
H  H34  1  0.83350000  0.62680000  0.73260000  1.0 0.1091841974
H  H35  1  0.77410000  0.69500000  0.67450000  1.0 0.1895585938
H  H36  1  0.83600000  0.80280000  0.85630000  1.0 0.16857819
H  H37  1  0.10080000  0.26280000  0.90520000  1.0 0.1091841974
H  H38  1  0.16650000  0.37320000  0.73260000  1.0 0.1091841974
H  H39  1  0.22590000  0.30500000  0.67450000  1.0 0.1895585938
H  H40  1  0.16400000  0.19720000  0.85630000  1.0 0.16857819
H  H41  1  0.73720000  0.10080000  0.40520000  1.0 0.1091841974
H  H42  1  0.62680000  0.16650000  0.23260000  1.0 0.1091841974
H  H43  1  0.69500000  0.22590000  0.17450000  1.0 0.1895585938
H  H44  1  0.80280000  0.16400000  0.35630000  1.0 0.16857819
H  H45  1  0.26280000  0.89920000  0.40520000  1.0 0.1091841974
H  H46  1  0.37320000  0.83350000  0.23260000  1.0 0.1091841974
H  H47  1  0.30500000  0.77410000  0.17450000  1.0 0.1895585938
H  H48  1  0.19720000  0.83600000  0.35630000  1.0 0.16857819
H  H49  1  0.89920000  0.26280000  0.09480000  1.0 0.1091841974
H  H50  1  0.83350000  0.37320000  0.26740000  1.0 0.1091841974
H  H51  1  0.77410000  0.30500000  0.32550000  1.0 0.1895585938
H  H52  1  0.83600000  0.19720000  0.14370000  1.0 0.16857819
H  H53  1  0.10080000  0.73720000  0.09480000  1.0 0.1091841974
H  H54  1  0.16650000  0.62680000  0.26740000  1.0 0.1091841974
H  H55  1  0.22590000  0.69500000  0.32550000  1.0 0.1895585938
H  H56  1  0.16400000  0.80280000  0.14370000  1.0 0.16857819
H  H57  1  0.73720000  0.89920000  0.59480000  1.0 0.1091841974
H  H58  1  0.62680000  0.83350000  0.76740000  1.0 0.1091841974
H  H59  1  0.69500000  0.77410000  0.82550000  1.0 0.1895585938
H  H60  1  0.80280000  0.83600000  0.64370000  1.0 0.16857819
H  H61  1  0.26280000  0.10080000  0.59480000  1.0 0.1091841974
H  H62  1  0.37320000  0.16650000  0.76740000  1.0 0.1091841974
H  H63  1  0.30500000  0.22590000  0.82550000  1.0 0.1895585938
H  H64  1  0.19720000  0.16400000  0.64370000  1.0 0.16857819
C  C1  1  0.20300000  0.24490000  0.23530000  1.0 0.0442076309
C  C2  1  0.16470000  0.23300000  0.16920000  1.0 -0.1577488794
C  C3  1  0.12750000  0.27180000  0.13920000  1.0 -0.0441735248
C  C4  1  0.13030000  0.32470000  0.17600000  1.0 -0.0501749574
C  C5  1  0.16600000  0.33720000  0.24290000  1.0 -0.0441735248
C  C6  1  0.20230000  0.29700000  0.27620000  1.0 -0.1541736049
C  C7  1  0.09280000  0.36720000  0.13970000  1.0 0.6396348032
C  C8  1  0.16120000  0.17730000  0.11970000  1.0 0.3706905882
C  C9  1  0.23690000  0.31600000  0.35540000  1.0 0.381943878
C  C10  1  0.79700000  0.75510000  0.23530000  1.0 0.0457589405
C  C11  1  0.83530000  0.76700000  0.16920000  1.0 -0.1577488794
C  C12  1  0.87250000  0.72820000  0.13920000  1.0 -0.0441735248
C  C13  1  0.86970000  0.67530000  0.17600000  1.0 -0.0501749574
C  C14  1  0.83400000  0.66280000  0.24290000  1.0 -0.0441735248
C  C15  1  0.79770000  0.70300000  0.27620000  1.0 -0.1541736049
C  C16  1  0.90720000  0.63280000  0.13970000  1.0 0.6396348032
C  C17  1  0.83880000  0.82270000  0.11970000  1.0 0.3706905882
C  C18  1  0.76310000  0.68400000  0.35540000  1.0 0.381943878
C  C19  1  0.24490000  0.79700000  0.73530000  1.0 0.0442076309
C  C20  1  0.23300000  0.83530000  0.66920000  1.0 -0.1577488794
C  C21  1  0.27180000  0.87250000  0.63920000  1.0 -0.0441735248
C  C22  1  0.32470000  0.86970000  0.67600000  1.0 -0.0501749574
C  C23  1  0.33720000  0.83400000  0.74290000  1.0 -0.0501749574
C  C24  1  0.29700000  0.79770000  0.77620000  1.0 -0.1541736049
C  C25  1  0.36720000  0.90720000  0.63970000  1.0 0.6396348032
C  C26  1  0.17730000  0.83880000  0.61970000  1.0 0.3706905882
C  C27  1  0.31600000  0.76310000  0.85540000  1.0 0.381943878
C  C28  1  0.75510000  0.20300000  0.73530000  1.0 0.0442076309
C  C29  1  0.76700000  0.16470000  0.66920000  1.0 -0.1577488794
C  C30  1  0.72820000  0.12750000  0.63920000  1.0 -0.0441735248
C  C31  1  0.67530000  0.13030000  0.67600000  1.0 -0.0501749574
C  C32  1  0.66280000  0.16600000  0.74290000  1.0 -0.0441735248
C  C33  1  0.70300000  0.20230000  0.77620000  1.0 -0.1541736049
C  C34  1  0.63280000  0.09280000  0.63970000  1.0 0.6396348032
C  C35  1  0.82270000  0.16120000  0.61970000  1.0 0.3706905882
C  C36  1  0.68400000  0.23690000  0.85540000  1.0 0.381943878
C  C37  1  0.20300000  0.75510000  0.76470000  1.0 0.0442076309
C  C38  1  0.16470000  0.76700000  0.83080000  1.0 -0.1577488794
C  C39  1  0.12750000  0.72820000  0.86080000  1.0 -0.0441735248
C  C40  1  0.13030000  0.67530000  0.82400000  1.0 -0.0501749574
C  C41  1  0.16600000  0.66280000  0.75710000  1.0 -0.0501749574
C  C42  1  0.20230000  0.70300000  0.72380000  1.0 -0.1541736049
C  C43  1  0.09280000  0.63280000  0.86030000  1.0 0.6396348032
C  C44  1  0.16120000  0.82270000  0.88030000  1.0 0.3706905882
C  C45  1  0.23690000  0.68400000  0.64460000  1.0 0.381943878
C  C46  1  0.79700000  0.24490000  0.76470000  1.0 0.0442076309
C  C47  1  0.83530000  0.23300000  0.83080000  1.0 -0.1577488794
C  C48  1  0.87250000  0.27180000  0.86080000  1.0 -0.0441735248
C  C49  1  0.86970000  0.32470000  0.82400000  1.0 -0.0501749574
C  C50  1  0.83400000  0.33720000  0.75710000  1.0 -0.0501749574
C  C51  1  0.79770000  0.29700000  0.72380000  1.0 -0.1541736049
C  C52  1  0.90720000  0.36720000  0.86030000  1.0 0.6396348032
C  C53  1  0.83880000  0.17730000  0.88030000  1.0 0.3706905882
C  C54  1  0.76310000  0.31600000  0.64460000  1.0 0.381943878
C  C55  1  0.24490000  0.20300000  0.26470000  1.0 0.0442076309
C  C56  1  0.23300000  0.16470000  0.33080000  1.0 -0.1577488794
C  C57  1  0.27180000  0.12750000  0.36080000  1.0 -0.0441735248
C  C58  1  0.32470000  0.13030000  0.32400000  1.0 -0.0501749574
C  C59  1  0.33720000  0.16600000  0.25710000  1.0 -0.0441735248
C  C60  1  0.29700000  0.20230000  0.22380000  1.0 -0.1577488794
C  C61  1  0.36720000  0.09280000  0.36030000  1.0 0.6396348032
C  C62  1  0.17730000  0.16120000  0.38030000  1.0 0.3706905882
C  C63  1  0.31600000  0.23690000  0.14460000  1.0 0.381943878
C  C64  1  0.75510000  0.79700000  0.26470000  1.0 0.0457589405
C  C65  1  0.76700000  0.83530000  0.33080000  1.0 -0.1577488794
C  C66  1  0.72820000  0.87250000  0.36080000  1.0 -0.0441735248
C  C67  1  0.67530000  0.86970000  0.32400000  1.0 -0.0501749574
C  C68  1  0.66280000  0.83400000  0.25710000  1.0 -0.0441735248
C  C69  1  0.70300000  0.79770000  0.22380000  1.0 -0.1541736049
C  C70  1  0.63280000  0.90720000  0.36030000  1.0 0.6396348032
C  C71  1  0.82270000  0.83880000  0.38030000  1.0 0.3706905882
C  C72  1  0.68400000  0.76310000  0.14460000  1.0 0.381943878
C  C73  1  0.79700000  0.75510000  0.76470000  1.0 0.0457589405
C  C74  1  0.83530000  0.76700000  0.83080000  1.0 -0.1577488794
C  C75  1  0.87250000  0.72820000  0.86080000  1.0 -0.0441735248
C  C76  1  0.86970000  0.67530000  0.82400000  1.0 -0.0501749574
C  C77  1  0.83400000  0.66280000  0.75710000  1.0 -0.0441735248
C  C78  1  0.79770000  0.70300000  0.72380000  1.0 -0.1541736049
C  C79  1  0.90720000  0.63280000  0.86030000  1.0 0.6396348032
C  C80  1  0.83880000  0.82270000  0.88030000  1.0 0.3706905882
C  C81  1  0.76310000  0.68400000  0.64460000  1.0 0.381943878
C  C82  1  0.20300000  0.24490000  0.76470000  1.0 0.0442076309
C  C83  1  0.16470000  0.23300000  0.83080000  1.0 -0.1577488794
C  C84  1  0.12750000  0.27180000  0.86080000  1.0 -0.0441735248
C  C85  1  0.13030000  0.32470000  0.82400000  1.0 -0.0501749574
C  C86  1  0.16600000  0.33720000  0.75710000  1.0 -0.0501749574
C  C87  1  0.20230000  0.29700000  0.72380000  1.0 -0.1541736049
C  C88  1  0.09280000  0.36720000  0.86030000  1.0 0.6396348032
C  C89  1  0.16120000  0.17730000  0.88030000  1.0 0.3706905882
C  C90  1  0.23690000  0.31600000  0.64460000  1.0 0.381943878
C  C91  1  0.75510000  0.20300000  0.26470000  1.0 0.0457589405
C  C92  1  0.76700000  0.16470000  0.33080000  1.0 -0.1577488794
C  C93  1  0.72820000  0.12750000  0.36080000  1.0 -0.0441735248
C  C94  1  0.67530000  0.13030000  0.32400000  1.0 -0.0501749574
C  C95  1  0.66280000  0.16600000  0.25710000  1.0 -0.0441735248
C  C96  1  0.70300000  0.20230000  0.22380000  1.0 -0.1541736049
C  C97  1  0.63280000  0.09280000  0.36030000  1.0 0.6396348032
C  C98  1  0.82270000  0.16120000  0.38030000  1.0 0.3706905882
C  C99  1  0.68400000  0.23690000  0.14460000  1.0 0.381943878
C  C100  1  0.24490000  0.79700000  0.26470000  1.0 0.0457589405
C  C101  1  0.23300000  0.83530000  0.33080000  1.0 -0.1577488794
C  C102  1  0.27180000  0.87250000  0.36080000  1.0 -0.0441735248
C  C103  1  0.32470000  0.86970000  0.32400000  1.0 -0.0501749574
C  C104  1  0.33720000  0.83400000  0.25710000  1.0 -0.0501749574
C  C105  1  0.29700000  0.79770000  0.22380000  1.0 -0.1577488794
C  C106  1  0.36720000  0.90720000  0.36030000  1.0 0.6396348032
C  C107  1  0.17730000  0.83880000  0.38030000  1.0 0.3706905882
C  C108  1  0.31600000  0.76310000  0.14460000  1.0 0.381943878
C  C109  1  0.79700000  0.24490000  0.23530000  1.0 0.0457589405
C  C110  1  0.83530000  0.23300000  0.16920000  1.0 -0.1577488794
C  C111  1  0.87250000  0.27180000  0.13920000  1.0 -0.0441735248
C  C112  1  0.86970000  0.32470000  0.17600000  1.0 -0.0501749574
C  C113  1  0.83400000  0.33720000  0.24290000  1.0 -0.0441735248
C  C114  1  0.79770000  0.29700000  0.27620000  1.0 -0.1541736049
C  C115  1  0.90720000  0.36720000  0.13970000  1.0 0.6396348032
C  C116  1  0.83880000  0.17730000  0.11970000  1.0 0.3706905882
C  C117  1  0.76310000  0.31600000  0.35540000  1.0 0.381943878
C  C118  1  0.20300000  0.75510000  0.23530000  1.0 0.0457589405
C  C119  1  0.16470000  0.76700000  0.16920000  1.0 -0.1577488794
C  C120  1  0.12750000  0.72820000  0.13920000  1.0 -0.0441735248
C  C121  1  0.13030000  0.67530000  0.17600000  1.0 -0.0501749574
C  C122  1  0.16600000  0.66280000  0.24290000  1.0 -0.0441735248
C  C123  1  0.20230000  0.70300000  0.27620000  1.0 -0.1541736049
C  C124  1  0.09280000  0.63280000  0.13970000  1.0 0.6396348032
C  C125  1  0.16120000  0.82270000  0.11970000  1.0 0.3706905882
C  C126  1  0.23690000  0.68400000  0.35540000  1.0 0.381943878
C  C127  1  0.75510000  0.79700000  0.73530000  1.0 0.0457589405
C  C128  1  0.76700000  0.83530000  0.66920000  1.0 -0.1577488794
C  C129  1  0.72820000  0.87250000  0.63920000  1.0 -0.0441735248
C  C130  1  0.67530000  0.86970000  0.67600000  1.0 -0.0501749574
C  C131  1  0.66280000  0.83400000  0.74290000  1.0 -0.0441735248
C  C132  1  0.70300000  0.79770000  0.77620000  1.0 -0.1541736049
C  C133  1  0.63280000  0.90720000  0.63970000  1.0 0.6396348032
C  C134  1  0.82270000  0.83880000  0.61970000  1.0 0.3706905882
C  C135  1  0.68400000  0.76310000  0.85540000  1.0 0.381943878
C  C136  1  0.24490000  0.20300000  0.73530000  1.0 0.0442076309
C  C137  1  0.23300000  0.16470000  0.66920000  1.0 -0.1577488794
C  C138  1  0.27180000  0.12750000  0.63920000  1.0 -0.0441735248
C  C139  1  0.32470000  0.13030000  0.67600000  1.0 -0.0501749574
C  C140  1  0.33720000  0.16600000  0.74290000  1.0 -0.0501749574
C  C141  1  0.29700000  0.20230000  0.77620000  1.0 -0.1541736049
C  C142  1  0.36720000  0.09280000  0.63970000  1.0 0.6396348032
C  C143  1  0.17730000  0.16120000  0.61970000  1.0 0.3706905882
C  C144  1  0.31600000  0.23690000  0.85540000  1.0 0.381943878
O  O1  1  0.05504000  0.35219000  0.08790000  1.0 -0.5474319455
O  O2  1  0.10260000  0.41720000  0.16570000  1.0 -0.6142590416
O  O3  1  0.94496000  0.64781000  0.08790000  1.0 -0.5474319455
O  O4  1  0.89740000  0.58280000  0.16570000  1.0 -0.6142590416
O  O5  1  0.35219000  0.94496000  0.58790000  1.0 -0.5474319455
O  O6  1  0.41720000  0.89740000  0.66570000  1.0 -0.6142590416
O  O7  1  0.64781000  0.05504000  0.58790000  1.0 -0.5474319455
O  O8  1  0.58280000  0.10260000  0.66570000  1.0 -0.6142590416
O  O9  1  0.05504000  0.64781000  0.91210000  1.0 -0.5474319455
O  O10  1  0.10260000  0.58280000  0.83430000  1.0 -0.6142590416
O  O11  1  0.94496000  0.35219000  0.91210000  1.0 -0.5474319455
O  O12  1  0.89740000  0.41720000  0.83430000  1.0 -0.6142590416
O  O13  1  0.35219000  0.05504000  0.41210000  1.0 -0.5474319455
O  O14  1  0.41720000  0.10260000  0.33430000  1.0 -0.6142590416
O  O15  1  0.64781000  0.94496000  0.41210000  1.0 -0.5474319455
O  O16  1  0.58280000  0.89740000  0.33430000  1.0 -0.6142590416
O  O17  1  0.94496000  0.64781000  0.91210000  1.0 -0.5474319455
O  O18  1  0.89740000  0.58280000  0.83430000  1.0 -0.6142590416
O  O19  1  0.05504000  0.35219000  0.91210000  1.0 -0.5474319455
O  O20  1  0.10260000  0.41720000  0.83430000  1.0 -0.6142590416
O  O21  1  0.64781000  0.05504000  0.41210000  1.0 -0.5474319455
O  O22  1  0.58280000  0.10260000  0.33430000  1.0 -0.6142590416
O  O23  1  0.35219000  0.94496000  0.41210000  1.0 -0.5474319455
O  O24  1  0.41720000  0.89740000  0.33430000  1.0 -0.6142590416
O  O25  1  0.94496000  0.35219000  0.08790000  1.0 -0.5474319455
O  O26  1  0.89740000  0.41720000  0.16570000  1.0 -0.6142590416
O  O27  1  0.05504000  0.64781000  0.08790000  1.0 -0.5474319455
O  O28  1  0.10260000  0.58280000  0.16570000  1.0 -0.6142590416
O  O29  1  0.64781000  0.94496000  0.58790000  1.0 -0.5474319455
O  O30  1  0.58280000  0.89740000  0.66570000  1.0 -0.6142590416
O  O31  1  0.35219000  0.05504000  0.58790000  1.0 -0.5474319455
O  O32  1  0.41720000  0.10260000  0.66570000  1.0 -0.6142590416
O  O33  1  0.00000000  0.45110000  0.11670000  1.0 -1.1691611034
O  O34  1  0.00000000  0.54890000  0.11670000  1.0 -1.1691611034
O  O35  1  0.45110000  0.00000000  0.61670000  1.0 -1.1691611034
O  O36  1  0.54890000  0.00000000  0.61670000  1.0 -1.1691611034
O  O37  1  0.00000000  0.54890000  0.88330000  1.0 -1.1691611034
O  O38  1  0.00000000  0.45110000  0.88330000  1.0 -1.1691611034
O  O39  1  0.45110000  0.00000000  0.38330000  1.0 -1.1691611034
O  O40  1  0.54890000  0.00000000  0.38330000  1.0 -1.1691611034
O  O41  1  0.07310000  0.45110000  0.00000000  1.0 -1.1691611034
O  O42  1  0.92690000  0.54890000  0.00000000  1.0 -1.1691611034
O  O43  1  0.45110000  0.92690000  0.50000000  1.0 -1.1691611034
O  O44  1  0.54890000  0.07310000  0.50000000  1.0 -1.1691611034
O  O45  1  0.07310000  0.54890000  0.00000000  1.0 -1.1691611034
O  O46  1  0.92690000  0.45110000  0.00000000  1.0 -1.1691611034
O  O47  1  0.45110000  0.07310000  0.50000000  1.0 -1.1691611034
O  O48  1  0.54890000  0.92690000  0.50000000  1.0 -1.1691611034
F  F1  1  0.20960000  0.16090000  0.07340000  1.0 -0.2423171203
F  F2  1  0.12020000  0.17200000  0.05500000  1.0 -0.0691213261
F  F3  1  0.15270000  0.13250000  0.17930000  1.0 -0.2081123076
F  F4  1  0.23930000  0.27930000  0.43040000  1.0 -0.188731705
F  F5  1  0.29340000  0.32610000  0.33600000  1.0 -0.188731705
F  F6  1  0.22180000  0.36650000  0.39850000  1.0 -0.1772045714
F  F7  1  0.79040000  0.83910000  0.07340000  1.0 -0.2423171203
F  F8  1  0.87980000  0.82800000  0.05500000  1.0 -0.0691213261
F  F9  1  0.84730000  0.86750000  0.17930000  1.0 -0.2081123076
F  F10  1  0.76070000  0.72070000  0.43040000  1.0 -0.188731705
F  F11  1  0.70660000  0.67390000  0.33600000  1.0 -0.188731705
F  F12  1  0.77820000  0.63350000  0.39850000  1.0 -0.1772045714
F  F13  1  0.16090000  0.79040000  0.57340000  1.0 -0.2423171203
F  F14  1  0.17200000  0.87980000  0.55500000  1.0 -0.0691213261
F  F15  1  0.13250000  0.84730000  0.67930000  1.0 -0.2081123076
F  F16  1  0.27930000  0.76070000  0.93040000  1.0 -0.188731705
F  F17  1  0.32610000  0.70660000  0.83600000  1.0 -0.188731705
F  F18  1  0.36650000  0.77820000  0.89850000  1.0 -0.1772045714
F  F19  1  0.83910000  0.20960000  0.57340000  1.0 -0.2423171203
F  F20  1  0.82800000  0.12020000  0.55500000  1.0 -0.0691213261
F  F21  1  0.86750000  0.15270000  0.67930000  1.0 -0.2081123076
F  F22  1  0.72070000  0.23930000  0.93040000  1.0 -0.188731705
F  F23  1  0.67390000  0.29340000  0.83600000  1.0 -0.188731705
F  F24  1  0.63350000  0.22180000  0.89850000  1.0 -0.1772045714
F  F25  1  0.20960000  0.83910000  0.92660000  1.0 -0.2423171203
F  F26  1  0.12020000  0.82800000  0.94500000  1.0 -0.0691213261
F  F27  1  0.15270000  0.86750000  0.82070000  1.0 -0.2081123076
F  F28  1  0.23930000  0.72070000  0.56960000  1.0 -0.188731705
F  F29  1  0.29340000  0.67390000  0.66400000  1.0 -0.188731705
F  F30  1  0.22180000  0.63350000  0.60150000  1.0 -0.1772045714
F  F31  1  0.79040000  0.16090000  0.92660000  1.0 -0.2423171203
F  F32  1  0.87980000  0.17200000  0.94500000  1.0 -0.0691213261
F  F33  1  0.84730000  0.13250000  0.82070000  1.0 -0.2081123076
F  F34  1  0.76070000  0.27930000  0.56960000  1.0 -0.188731705
F  F35  1  0.70660000  0.32610000  0.66400000  1.0 -0.188731705
F  F36  1  0.77820000  0.36650000  0.60150000  1.0 -0.1772045714
F  F37  1  0.16090000  0.20960000  0.42660000  1.0 -0.2423171203
F  F38  1  0.17200000  0.12020000  0.44500000  1.0 -0.0691213261
F  F39  1  0.13250000  0.15270000  0.32070000  1.0 -0.2081123076
F  F40  1  0.27930000  0.23930000  0.06960000  1.0 -0.188731705
F  F41  1  0.32610000  0.29340000  0.16400000  1.0 -0.188731705
F  F42  1  0.36650000  0.22180000  0.10150000  1.0 -0.1772045714
F  F43  1  0.83910000  0.79040000  0.42660000  1.0 -0.2423171203
F  F44  1  0.82800000  0.87980000  0.44500000  1.0 -0.0691213261
F  F45  1  0.86750000  0.84730000  0.32070000  1.0 -0.2081123076
F  F46  1  0.72070000  0.76070000  0.06960000  1.0 -0.188731705
F  F47  1  0.67390000  0.70660000  0.16400000  1.0 -0.188731705
F  F48  1  0.63350000  0.77820000  0.10150000  1.0 -0.1772045714
F  F49  1  0.79040000  0.83910000  0.92660000  1.0 -0.2423171203
F  F50  1  0.87980000  0.82800000  0.94500000  1.0 -0.0691213261
F  F51  1  0.84730000  0.86750000  0.82070000  1.0 -0.2081123076
F  F52  1  0.76070000  0.72070000  0.56960000  1.0 -0.188731705
F  F53  1  0.70660000  0.67390000  0.66400000  1.0 -0.188731705
F  F54  1  0.77820000  0.63350000  0.60150000  1.0 -0.1772045714
F  F55  1  0.20960000  0.16090000  0.92660000  1.0 -0.2423171203
F  F56  1  0.12020000  0.17200000  0.94500000  1.0 -0.0691213261
F  F57  1  0.15270000  0.13250000  0.82070000  1.0 -0.2081123076
F  F58  1  0.23930000  0.27930000  0.56960000  1.0 -0.188731705
F  F59  1  0.29340000  0.32610000  0.66400000  1.0 -0.188731705
F  F60  1  0.22180000  0.36650000  0.60150000  1.0 -0.1772045714
F  F61  1  0.83910000  0.20960000  0.42660000  1.0 -0.2423171203
F  F62  1  0.82800000  0.12020000  0.44500000  1.0 -0.0691213261
F  F63  1  0.86750000  0.15270000  0.32070000  1.0 -0.2081123076
F  F64  1  0.72070000  0.23930000  0.06960000  1.0 -0.188731705
F  F65  1  0.67390000  0.29340000  0.16400000  1.0 -0.188731705
F  F66  1  0.63350000  0.22180000  0.10150000  1.0 -0.1772045714
F  F67  1  0.16090000  0.79040000  0.42660000  1.0 -0.2423171203
F  F68  1  0.17200000  0.87980000  0.44500000  1.0 -0.0691213261
F  F69  1  0.13250000  0.84730000  0.32070000  1.0 -0.2081123076
F  F70  1  0.27930000  0.76070000  0.06960000  1.0 -0.188731705
F  F71  1  0.32610000  0.70660000  0.16400000  1.0 -0.188731705
F  F72  1  0.36650000  0.77820000  0.10150000  1.0 -0.1772045714
F  F73  1  0.79040000  0.16090000  0.07340000  1.0 -0.2423171203
F  F74  1  0.87980000  0.17200000  0.05500000  1.0 -0.0691213261
F  F75  1  0.84730000  0.13250000  0.17930000  1.0 -0.2081123076
F  F76  1  0.76070000  0.27930000  0.43040000  1.0 -0.188731705
F  F77  1  0.70660000  0.32610000  0.33600000  1.0 -0.188731705
F  F78  1  0.77820000  0.36650000  0.39850000  1.0 -0.1772045714
F  F79  1  0.20960000  0.83910000  0.07340000  1.0 -0.2423171203
F  F80  1  0.12020000  0.82800000  0.05500000  1.0 -0.0691213261
F  F81  1  0.15270000  0.86750000  0.17930000  1.0 -0.2081123076
F  F82  1  0.23930000  0.72070000  0.43040000  1.0 -0.188731705
F  F83  1  0.29340000  0.67390000  0.33600000  1.0 -0.188731705
F  F84  1  0.22180000  0.63350000  0.39850000  1.0 -0.1772045714
F  F85  1  0.83910000  0.79040000  0.57340000  1.0 -0.2423171203
F  F86  1  0.82800000  0.87980000  0.55500000  1.0 -0.0691213261
F  F87  1  0.86750000  0.84730000  0.67930000  1.0 -0.2081123076
F  F88  1  0.72070000  0.76070000  0.93040000  1.0 -0.188731705
F  F89  1  0.67390000  0.70660000  0.83600000  1.0 -0.188731705
F  F90  1  0.63350000  0.77820000  0.89850000  1.0 -0.1772045714
F  F91  1  0.16090000  0.20960000  0.57340000  1.0 -0.2423171203
F  F92  1  0.17200000  0.12020000  0.55500000  1.0 -0.0691213261
F  F93  1  0.13250000  0.15270000  0.67930000  1.0 -0.2081123076
F  F94  1  0.27930000  0.23930000  0.93040000  1.0 -0.188731705
F  F95  1  0.32610000  0.29340000  0.83600000  1.0 -0.188731705
F  F96  1  0.36650000  0.22180000  0.89850000  1.0 -0.1772045714
