# DDEC6 charges by PACMAN v1.1 (https://github.com/mtap-research/PACMAN-charge/)
data_XUWTAK_ASR_pacman
_symmetry_space_group_name_H-M   'P 1'
_cell_length_a   10.04460000
_cell_length_b   10.04460000
_cell_length_c   16.50300000
_cell_angle_alpha   90.00000000
_cell_angle_beta   90.00000000
_cell_angle_gamma   120.03700000
_symmetry_Int_Tables_number   1
_chemical_formula_structural   MnGa(PO4)2
_chemical_formula_sum   'Mn6 Ga6 P12 O48'
_cell_volume   1441.44070940
_cell_formula_units_Z   6
loop_
 _symmetry_equiv_pos_site_id
 _symmetry_equiv_pos_as_xyz
  1  'x, y, z'
loop_
 _atom_site_type_symbol
 _atom_site_label
 _atom_site_symmetry_multiplicity
 _atom_site_fract_x
 _atom_site_fract_y
 _atom_site_fract_z
 _atom_site_occupancy
 _atom_site_charge
Mn  Mn1  1  0.53510000  0.46490000  0.75000000  1.0 1.2693254012
Mn  Mn2  1  0.46490000  0.53510000  0.25000000  1.0 1.2693254012
Mn  Mn3  1  0.07070000  0.53610000  0.91650000  1.0 1.2693254012
Mn  Mn4  1  0.92930000  0.46390000  0.41650000  1.0 1.2693254012
Mn  Mn5  1  0.53610000  0.07070000  0.08350000  1.0 1.2693254012
Mn  Mn6  1  0.46390000  0.92930000  0.58350000  1.0 1.2693254012
Ga  Ga1  1  0.84020000  0.15980000  0.75000000  1.0 1.4379307884
Ga  Ga2  1  0.15980000  0.84020000  0.25000000  1.0 1.4379307884
Ga  Ga3  1  0.68080000  0.84060000  0.91670000  1.0 1.4630142707
Ga  Ga4  1  0.31920000  0.15940000  0.41670000  1.0 1.4630142707
Ga  Ga5  1  0.84060000  0.68080000  0.08330000  1.0 1.4630142707
Ga  Ga6  1  0.15940000  0.31920000  0.58330000  1.0 1.4630142707
P  P1  1  0.77840000  0.17880000  0.92650000  1.0 1.5316104549
P  P2  1  0.22160000  0.82120000  0.42650000  1.0 1.5316104549
P  P3  1  0.17880000  0.77840000  0.07350000  1.0 1.5316104549
P  P4  1  0.82120000  0.22160000  0.57350000  1.0 1.5316104549
P  P5  1  0.77790000  0.59930000  0.90670000  1.0 1.5316104549
P  P6  1  0.22210000  0.40070000  0.40670000  1.0 1.5360009331
P  P7  1  0.59930000  0.77790000  0.09330000  1.0 1.5316104549
P  P8  1  0.40070000  0.22210000  0.59330000  1.0 1.5360009331
P  P9  1  0.17890000  0.40090000  0.76000000  1.0 1.5360009331
P  P10  1  0.82110000  0.59910000  0.26000000  1.0 1.5316104549
P  P11  1  0.40090000  0.17890000  0.24000000  1.0 1.5360009331
P  P12  1  0.59910000  0.82110000  0.74000000  1.0 1.5316104549
O  O1  1  0.81460000  0.04440000  0.92720000  1.0 -0.7219364796
O  O2  1  0.18540000  0.95560000  0.42720000  1.0 -0.7219364796
O  O3  1  0.04440000  0.81460000  0.07280000  1.0 -0.7219364796
O  O4  1  0.95560000  0.18540000  0.57280000  1.0 -0.7219364796
O  O5  1  0.75460000  0.20580000  0.83640000  1.0 -0.7287138682
O  O6  1  0.24540000  0.79420000  0.33640000  1.0 -0.7287138682
O  O7  1  0.20580000  0.75460000  0.16360000  1.0 -0.7287138682
O  O8  1  0.79420000  0.24540000  0.66360000  1.0 -0.7287138682
O  O9  1  0.91840000  0.32060000  0.96020000  1.0 -0.7287138682
O  O10  1  0.08160000  0.67940000  0.46020000  1.0 -0.7287138682
O  O11  1  0.32060000  0.91840000  0.03980000  1.0 -0.7287138682
O  O12  1  0.67940000  0.08160000  0.53980000  1.0 -0.7287138682
O  O13  1  0.62920000  0.13460000  0.96790000  1.0 -0.7364666801
O  O14  1  0.37080000  0.86540000  0.46790000  1.0 -0.7364666801
O  O15  1  0.13460000  0.62920000  0.03210000  1.0 -0.7364666801
O  O16  1  0.86540000  0.37080000  0.53210000  1.0 -0.7364666801
O  O17  1  0.81420000  0.77160000  0.90480000  1.0 -0.7143298727
O  O18  1  0.18580000  0.22840000  0.40480000  1.0 -0.7143298727
O  O19  1  0.77160000  0.81420000  0.09520000  1.0 -0.7143298727
O  O20  1  0.22840000  0.18580000  0.59520000  1.0 -0.7143298727
O  O21  1  0.75530000  0.55010000  0.99720000  1.0 -0.7219364796
O  O22  1  0.24470000  0.44990000  0.49720000  1.0 -0.7219364796
O  O23  1  0.55010000  0.75530000  0.00280000  1.0 -0.7219364796
O  O24  1  0.44990000  0.24470000  0.50280000  1.0 -0.7219364796
O  O25  1  0.91540000  0.59720000  0.87090000  1.0 -0.7219364796
O  O26  1  0.08460000  0.40280000  0.37090000  1.0 -0.7219364796
O  O27  1  0.59720000  0.91540000  0.12910000  1.0 -0.7219364796
O  O28  1  0.40280000  0.08460000  0.62910000  1.0 -0.7219364796
O  O29  1  0.63150000  0.49570000  0.86270000  1.0 -0.7287138682
O  O30  1  0.36850000  0.50430000  0.36270000  1.0 -0.7287138682
O  O31  1  0.49570000  0.63150000  0.13730000  1.0 -0.7287138682
O  O32  1  0.50430000  0.36850000  0.63730000  1.0 -0.7287138682
O  O33  1  0.04160000  0.23000000  0.76040000  1.0 -0.7030777973
O  O34  1  0.95840000  0.77000000  0.26040000  1.0 -0.7030777973
O  O35  1  0.23000000  0.04160000  0.23960000  1.0 -0.7030777973
O  O36  1  0.77000000  0.95840000  0.73960000  1.0 -0.7030777973
O  O37  1  0.20670000  0.45170000  0.66960000  1.0 -0.7287138682
O  O38  1  0.79330000  0.54830000  0.16960000  1.0 -0.7287138682
O  O39  1  0.45170000  0.20670000  0.33040000  1.0 -0.7287138682
O  O40  1  0.54830000  0.79330000  0.83040000  1.0 -0.7287138682
O  O41  1  0.31760000  0.40280000  0.79430000  1.0 -0.7219364796
O  O42  1  0.68240000  0.59720000  0.29430000  1.0 -0.7219364796
O  O43  1  0.40280000  0.31760000  0.20570000  1.0 -0.7219364796
O  O44  1  0.59720000  0.68240000  0.70570000  1.0 -0.7219364796
O  O45  1  0.13570000  0.50470000  0.80230000  1.0 -0.7287138682
O  O46  1  0.86430000  0.49530000  0.30230000  1.0 -0.7287138682
O  O47  1  0.50470000  0.13570000  0.19770000  1.0 -0.7287138682
O  O48  1  0.49530000  0.86430000  0.69770000  1.0 -0.7287138682
