# DDEC6 charges by PACMAN v1.1 (https://github.com/mtap-research/PACMAN-charge/)
data_XUWTOA_FSR_pacman
_symmetry_space_group_name_H-M   'P 1'
_cell_length_a   9.74380000
_cell_length_b   16.32620000
_cell_length_c   14.74010000
_cell_angle_alpha   90.00000000
_cell_angle_beta   123.87500000
_cell_angle_gamma   90.00000000
_symmetry_Int_Tables_number   1
_chemical_formula_structural   CoRe3C3S4N3O2
_chemical_formula_sum   'Co4 Re12 C12 S16 N12 O8'
_cell_volume   1946.81955709
_cell_formula_units_Z   4
loop_
 _symmetry_equiv_pos_site_id
 _symmetry_equiv_pos_as_xyz
  1  'x, y, z'
loop_
 _atom_site_type_symbol
 _atom_site_label
 _atom_site_symmetry_multiplicity
 _atom_site_fract_x
 _atom_site_fract_y
 _atom_site_fract_z
 _atom_site_occupancy
 _atom_site_charge
Co  Co1  1  0.64841000  0.06867000  0.58153000  1.0 1.2916222566
Co  Co2  1  0.35159000  0.56867000  0.91847000  1.0 1.2916222566
Co  Co3  1  0.35159000  0.93133000  0.41847000  1.0 1.2916222566
Co  Co4  1  0.64841000  0.43133000  0.08153000  1.0 1.2916222566
Re  Re1  1  0.27958000  0.02127000  0.89838000  1.0 0.3007622378
Re  Re2  1  0.72042000  0.52127000  0.60162000  1.0 0.3007622378
Re  Re3  1  0.72042000  0.97873000  0.10162000  1.0 0.3007622378
Re  Re4  1  0.27958000  0.47873000  0.39838000  1.0 0.3007622378
Re  Re5  1  0.54124000  0.01099000  0.89299000  1.0 0.3007622378
Re  Re6  1  0.45876000  0.51099000  0.60701000  1.0 0.3007622378
Re  Re7  1  0.45876000  0.98901000  0.10701000  1.0 0.3007622378
Re  Re8  1  0.54124000  0.48901000  0.39299000  1.0 0.3007622378
Re  Re9  1  0.53892000  0.11041000  0.03022000  1.0 0.3007622378
Re  Re10  1  0.46108000  0.61041000  0.46978000  1.0 0.3007622378
Re  Re11  1  0.46108000  0.88959000  0.96978000  1.0 0.3007622378
Re  Re12  1  0.53892000  0.38959000  0.53022000  1.0 0.3007622378
C  C1  1  0.03080000  0.04610000  0.77560000  1.0 0.2812086781
C  C2  1  0.96920000  0.54610000  0.72440000  1.0 0.2863563353
C  C3  1  0.96920000  0.95390000  0.22440000  1.0 0.2812086781
C  C4  1  0.03080000  0.45390000  0.27560000  1.0 0.2812086781
C  C5  1  0.58110000  0.02960000  0.76830000  1.0 0.2812086781
C  C6  1  0.41890000  0.52960000  0.73170000  1.0 0.2812086781
C  C7  1  0.41890000  0.97040000  0.23170000  1.0 0.2812086781
C  C8  1  0.58110000  0.47040000  0.26830000  1.0 0.2812086781
C  C9  1  0.58790000  0.23600000  0.06250000  1.0 0.3007622378
C  C10  1  0.41210000  0.73600000  0.43750000  1.0 0.3007622378
C  C11  1  0.41210000  0.76400000  0.93750000  1.0 0.3007622378
C  C12  1  0.58790000  0.26400000  0.56250000  1.0 0.3007622378
S  S1  1  0.29280000  0.11170000  0.03300000  1.0 -0.145067597
S  S2  1  0.70720000  0.61170000  0.46700000  1.0 -0.1403226522
S  S3  1  0.70720000  0.88830000  0.96700000  1.0 -0.1403226522
S  S4  1  0.29280000  0.38830000  0.53300000  1.0 -0.1403226522
S  S5  1  0.22070000  0.90820000  0.97690000  1.0 -0.1783652203
S  S6  1  0.77930000  0.40820000  0.52310000  1.0 -0.1683959311
S  S7  1  0.77930000  0.09180000  0.02310000  1.0 -0.1783652203
S  S8  1  0.22070000  0.59180000  0.47690000  1.0 -0.1783652203
S  S9  1  0.29800000  0.92790000  0.77910000  1.0 -0.0518745577
S  S10  1  0.70200000  0.42790000  0.72090000  1.0 -0.0518745577
S  S11  1  0.70200000  0.07210000  0.22090000  1.0 -0.0566136038
S  S12  1  0.29800000  0.57210000  0.27910000  1.0 -0.0377728886
S  S13  1  0.36930000  0.13160000  0.83540000  1.0 -0.1403226522
S  S14  1  0.63070000  0.63160000  0.66460000  1.0 -0.1403226522
S  S15  1  0.63070000  0.86840000  0.16460000  1.0 -0.1403226522
S  S16  1  0.36930000  0.36840000  0.33540000  1.0 -0.1403226522
N  N1  1  0.59840000  0.04420000  0.69820000  1.0 -0.4790400809
N  N2  1  0.40160000  0.54420000  0.80180000  1.0 -0.4790400809
N  N3  1  0.40160000  0.95580000  0.30180000  1.0 -0.4790400809
N  N4  1  0.59840000  0.45580000  0.19820000  1.0 -0.4790400809
N  N5  1  0.89580000  0.05900000  0.70310000  1.0 -0.5185458224
N  N6  1  0.10420000  0.55900000  0.79690000  1.0 -0.5265400654
N  N7  1  0.10420000  0.94100000  0.29690000  1.0 -0.5185458224
N  N8  1  0.89580000  0.44100000  0.20310000  1.0 -0.5185458224
N  N9  1  0.61980000  0.30540000  0.07800000  1.0 -0.5185458224
N  N10  1  0.38020000  0.80540000  0.42200000  1.0 -0.5185458224
N  N11  1  0.38020000  0.69460000  0.92200000  1.0 -0.5185458224
N  N12  1  0.61980000  0.19460000  0.57800000  1.0 -0.5185458224
O  O1  1  0.38110000  0.06160000  0.45370000  1.0 -0.6169540382
O  O2  1  0.61890000  0.56160000  0.04630000  1.0 -0.6169540382
O  O3  1  0.61890000  0.93840000  0.54630000  1.0 -0.6169540382
O  O4  1  0.38110000  0.43840000  0.95370000  1.0 -0.6169540382
O  O5  1  0.70280000  0.07840000  0.46140000  1.0 -0.4144752568
O  O6  1  0.29720000  0.57840000  0.03860000  1.0 -0.416578665
O  O7  1  0.29720000  0.92160000  0.53860000  1.0 -0.416578665
O  O8  1  0.70280000  0.42160000  0.96140000  1.0 -0.416578665
