# DDEC6 charges by PACMAN v1.1 (https://github.com/mtap-research/PACMAN-charge/)
data_XUWVEQ_ASR_pacman
_symmetry_space_group_name_H-M   'P 1'
_cell_length_a   5.04837000
_cell_length_b   12.36990000
_cell_length_c   8.25470000
_cell_angle_alpha   90.00000000
_cell_angle_beta   92.06400000
_cell_angle_gamma   90.00000000
_symmetry_Int_Tables_number   1
_chemical_formula_structural   GaPH2CO4F
_chemical_formula_sum   'Ga4 P4 H8 C4 O16 F4'
_cell_volume   515.15368117
_cell_formula_units_Z   4
loop_
 _symmetry_equiv_pos_site_id
 _symmetry_equiv_pos_as_xyz
  1  'x, y, z'
loop_
 _atom_site_type_symbol
 _atom_site_label
 _atom_site_symmetry_multiplicity
 _atom_site_fract_x
 _atom_site_fract_y
 _atom_site_fract_z
 _atom_site_occupancy
 _atom_site_charge
Ga  Ga1  1  0.50000000  0.50000000  0.00000000  1.0 1.579413782
Ga  Ga2  1  0.50000000  0.00000000  0.00000000  1.0 1.579413782
Ga  Ga3  1  0.21536000  0.25000000  0.12571000  1.0 1.4717903241
Ga  Ga4  1  0.78464000  0.75000000  0.87429000  1.0 1.4717903241
P  P1  1  0.00446000  0.48763000  0.24013000  1.0 1.3708755776
P  P2  1  0.99554000  0.51237000  0.75987000  1.0 1.3708755776
P  P3  1  0.99554000  0.98763000  0.75987000  1.0 1.3708755776
P  P4  1  0.00446000  0.01237000  0.24013000  1.0 1.3708755776
H  H1  1  0.06612000  0.62072000  0.46514000  1.0 0.2134549424
H  H2  1  0.93388000  0.37928000  0.53486000  1.0 0.2134549424
H  H3  1  0.93388000  0.12072000  0.53486000  1.0 0.2134549424
H  H4  1  0.06612000  0.87928000  0.46514000  1.0 0.2134549424
H  H5  1  0.41710000  0.50250000  0.49581000  1.0 0.0380094603
H  H6  1  0.58290000  0.49750000  0.50419000  1.0 0.0380094603
H  H7  1  0.58290000  0.00250000  0.50419000  1.0 0.0380094603
H  H8  1  0.41710000  0.99750000  0.49581000  1.0 0.0380094603
C  C1  1  0.05471000  0.53275000  0.44340000  1.0 -0.272196953
C  C2  1  0.94529000  0.46725000  0.55660000  1.0 -0.272196953
C  C3  1  0.94529000  0.03275000  0.55660000  1.0 -0.272196953
C  C4  1  0.05471000  0.96725000  0.44340000  1.0 -0.272196953
O  O1  1  0.00651000  0.25000000  0.93331000  1.0 -0.3997928545
O  O2  1  0.99349000  0.75000000  0.06669000  1.0 -0.3997928545
O  O3  1  0.70842000  0.50870000  0.21084000  1.0 -0.6998188987
O  O4  1  0.29158000  0.49130000  0.78916000  1.0 -0.6998188987
O  O5  1  0.29158000  0.00870000  0.78916000  1.0 -0.6998188987
O  O6  1  0.70842000  0.99130000  0.21084000  1.0 -0.6998188987
O  O7  1  0.40661000  0.25000000  0.32904000  1.0 -0.3266361103
O  O8  1  0.59339000  0.75000000  0.67096000  1.0 -0.3266361103
O  O9  1  0.18193000  0.53999000  0.11467000  1.0 -0.7194212273
O  O10  1  0.81807000  0.46001000  0.88533000  1.0 -0.7194212273
O  O11  1  0.81807000  0.03999000  0.88533000  1.0 -0.7194212273
O  O12  1  0.18193000  0.96001000  0.11467000  1.0 -0.7194212273
O  O13  1  0.03538000  0.36220000  0.25176000  1.0 -0.6639652744
O  O14  1  0.96462000  0.63780000  0.74824000  1.0 -0.6639652744
O  O15  1  0.96462000  0.86220000  0.74824000  1.0 -0.6639652744
O  O16  1  0.03538000  0.13780000  0.25176000  1.0 -0.6639652744
F  F1  1  0.45635000  0.35117000  0.03118000  1.0 -0.4293251977
F  F2  1  0.54365000  0.64883000  0.96882000  1.0 -0.4293251977
F  F3  1  0.54365000  0.85117000  0.96882000  1.0 -0.4293251977
F  F4  1  0.45635000  0.14883000  0.03118000  1.0 -0.4293251977
