# DDEC6 charges by PACMAN v1.1 (https://github.com/mtap-research/PACMAN-charge/)
data_XUWVUG_ASR_pacman
_symmetry_space_group_name_H-M   'P 1'
_cell_length_a   12.38500000
_cell_length_b   3.68900000
_cell_length_c   17.64000000
_cell_angle_alpha   90.00000000
_cell_angle_beta   91.24700000
_cell_angle_gamma   90.00000000
_symmetry_Int_Tables_number   1
_chemical_formula_structural   Eu3C9O13
_chemical_formula_sum   'Eu6 C18 O26'
_cell_volume   805.75012193
_cell_formula_units_Z   2
loop_
 _symmetry_equiv_pos_site_id
 _symmetry_equiv_pos_as_xyz
  1  'x, y, z'
loop_
 _atom_site_type_symbol
 _atom_site_label
 _atom_site_symmetry_multiplicity
 _atom_site_fract_x
 _atom_site_fract_y
 _atom_site_fract_z
 _atom_site_occupancy
 _atom_site_charge
Eu  Eu1  1  0.44850000  0.25000000  0.90510000  1.0 2.3268919078
Eu  Eu2  1  0.55150000  0.75000000  0.09490000  1.0 2.3268919078
Eu  Eu3  1  0.29050000  0.75000000  0.73270000  1.0 2.2830576983
Eu  Eu4  1  0.70950000  0.25000000  0.26730000  1.0 2.2854123202
Eu  Eu5  1  0.63120000  0.75000000  0.45920000  1.0 2.2400631991
Eu  Eu6  1  0.36880000  0.25000000  0.54080000  1.0 2.2400631991
C  C1  1  0.69700000  0.23000000  0.86200000  1.0 0.7376710263
C  C2  1  0.30300000  0.73000000  0.13800000  1.0 0.7376710263
C  C3  1  0.75900000  0.14600000  0.78700000  1.0 -0.1068372392
C  C4  1  0.24100000  0.64600000  0.21300000  1.0 -0.1040391687
C  C5  1  0.71800000  0.36000000  0.72600000  1.0 0.159698711
C  C6  1  0.28200000  0.86000000  0.27400000  1.0 0.159698711
C  C7  1  0.87000000  0.13000000  0.79500000  1.0 0.1864518163
C  C8  1  0.13000000  0.63000000  0.20500000  1.0 0.1848961201
C  C9  1  0.78100000  0.41500000  0.66400000  1.0 -0.1221028331
C  C10  1  0.21900000  0.91500000  0.33600000  1.0 -0.1221028331
C  C11  1  0.94100000  0.17000000  0.72600000  1.0 -0.1068372392
C  C12  1  0.05900000  0.67000000  0.27400000  1.0 -0.1068372392
C  C13  1  0.73300000  0.45500000  0.58800000  1.0 0.6589010444
C  C14  1  0.26700000  0.95500000  0.41200000  1.0 0.6589010444
C  C15  1  0.88600000  0.27000000  0.66300000  1.0 0.1395705205
C  C16  1  0.11400000  0.77000000  0.33700000  1.0 0.1395705205
C  C17  1  0.04100000  0.02000000  0.73800000  1.0 0.639621028
C  C18  1  0.95900000  0.52000000  0.26200000  1.0 0.639621028
O  O1  1  0.44600000  0.26500000  0.04800000  1.0 -0.9641724738
O  O2  1  0.55400000  0.76500000  0.95200000  1.0 -0.9674684915
O  O3  1  0.28400000  0.24500000  0.82900000  1.0 -0.9887027654
O  O4  1  0.71600000  0.74500000  0.17100000  1.0 -0.9887027654
O  O5  1  0.45600000  0.76500000  0.81300000  1.0 -0.8745680365
O  O6  1  0.54400000  0.26500000  0.18700000  1.0 -0.8763926539
O  O7  1  0.32200000  0.76000000  0.94900000  1.0 -0.4746211383
O  O8  1  0.67800000  0.26000000  0.05100000  1.0 -0.4746211383
O  O9  1  0.60900000  0.34000000  0.84900000  1.0 -0.5784219715
O  O10  1  0.39100000  0.84000000  0.15100000  1.0 -0.5784219715
O  O11  1  0.76000000  0.39500000  0.91200000  1.0 -0.3402853969
O  O12  1  0.24000000  0.89500000  0.08800000  1.0 -0.3402853969
O  O13  1  0.70100000  0.19500000  0.54300000  1.0 -0.5363619241
O  O14  1  0.29900000  0.69500000  0.45700000  1.0 -0.5363619241
O  O15  1  0.77900000  0.72000000  0.55300000  1.0 -0.3402853969
O  O16  1  0.22100000  0.22000000  0.44700000  1.0 -0.3402853969
O  O17  1  0.07500000  0.81000000  0.79400000  1.0 -0.4536943945
O  O18  1  0.92500000  0.31000000  0.20600000  1.0 -0.4536943945
O  O19  1  0.13000000  0.20500000  0.71400000  1.0 -0.6227227959
O  O20  1  0.87000000  0.70500000  0.28600000  1.0 -0.626019946
O  O21  1  0.28100000  0.75000000  0.59600000  1.0 -1.1334785137
O  O22  1  0.71900000  0.25000000  0.40400000  1.0 -1.1334785137
O  O23  1  0.39400000  0.24500000  0.68500000  1.0 -0.8343347821
O  O24  1  0.60600000  0.74500000  0.31500000  1.0 -0.838150731
O  O25  1  0.49600000  0.75000000  0.56100000  1.0 -0.8901816818
O  O26  1  0.50400000  0.25000000  0.43900000  1.0 -0.8901816818
