# DDEC6 charges by PACMAN v1.1 (https://github.com/mtap-research/PACMAN-charge/)
data_XUXPEO_ASR_pacman
_symmetry_space_group_name_H-M   'P 1'
_cell_length_a   11.05740000
_cell_length_b   11.05740000
_cell_length_c   6.53500000
_cell_angle_alpha   75.63500000
_cell_angle_beta   104.36500000
_cell_angle_gamma   83.39010000
_symmetry_Int_Tables_number   1
_chemical_formula_structural   AlC6O5
_chemical_formula_sum   'Al2 C12 O10'
_cell_volume   736.42189335
_cell_formula_units_Z   2
loop_
 _symmetry_equiv_pos_site_id
 _symmetry_equiv_pos_as_xyz
  1  'x, y, z'
loop_
 _atom_site_type_symbol
 _atom_site_label
 _atom_site_symmetry_multiplicity
 _atom_site_fract_x
 _atom_site_fract_y
 _atom_site_fract_z
 _atom_site_occupancy
 _atom_site_charge
Al  Al1  1  0.50000000  0.50000000  0.50000000  1.0 1.5384680896
Al  Al2  1  0.50000000  0.50000000  0.00000000  1.0 1.5067274241
C  C1  1  0.73110000  0.47020000  0.86295000  1.0 0.6429762213
C  C2  1  0.86741000  0.43501000  0.93051000  1.0 -0.1621204497
C  C3  1  0.93825000  0.49941000  0.03508000  1.0 0.124261622
C  C4  1  0.47020000  0.73110000  0.13705000  1.0 0.6429762213
C  C5  1  0.43501000  0.86741000  0.06949000  1.0 -0.1621204497
C  C6  1  0.49941000  0.93825000  0.96492000  1.0 0.1254761486
C  C7  1  0.26890000  0.52980000  0.13705000  1.0 0.6429762213
C  C8  1  0.13259000  0.56499000  0.06949000  1.0 -0.1621204497
C  C9  1  0.06175000  0.50059000  0.96492000  1.0 0.1254761486
C  C10  1  0.52980000  0.26890000  0.86295000  1.0 0.6429762213
C  C11  1  0.56499000  0.13259000  0.93051000  1.0 -0.1621204497
C  C12  1  0.50059000  0.06175000  0.03508000  1.0 0.124261622
O  O1  1  0.67143000  0.48173000  0.00103000  1.0 -0.5175864131
O  O2  1  0.68002000  0.48312000  0.66352000  1.0 -0.5382429094
O  O3  1  0.48173000  0.67143000  0.99897000  1.0 -0.5175864131
O  O4  1  0.48312000  0.68002000  0.33648000  1.0 -0.5336652131
O  O5  1  0.32857000  0.51827000  0.99897000  1.0 -0.5175864131
O  O6  1  0.31998000  0.51688000  0.33648000  1.0 -0.5336652131
O  O7  1  0.51827000  0.32857000  0.00103000  1.0 -0.5175864131
O  O8  1  0.51688000  0.31998000  0.66352000  1.0 -0.5382429094
O  O9  1  0.43800000  0.56200000  0.70000000  1.0 -0.614645216
O  O10  1  0.56200000  0.43800000  0.30000000  1.0 -0.6392870278
