# DDEC6 charges by PACMAN v1.1 (https://github.com/mtap-research/PACMAN-charge/)
data_XUYDIF_FSR_pacman
_symmetry_space_group_name_H-M   'P 1'
_cell_length_a   9.59900000
_cell_length_b   11.02500000
_cell_length_c   12.57100000
_cell_angle_alpha   86.32800000
_cell_angle_beta   81.70500000
_cell_angle_gamma   79.83400000
_symmetry_Int_Tables_number   1
_chemical_formula_structural   Cd2H12C17N18
_chemical_formula_sum   'Cd4 H24 C34 N36'
_cell_volume   1294.77350054
_cell_formula_units_Z   2
loop_
 _symmetry_equiv_pos_site_id
 _symmetry_equiv_pos_as_xyz
  1  'x, y, z'
loop_
 _atom_site_type_symbol
 _atom_site_label
 _atom_site_symmetry_multiplicity
 _atom_site_fract_x
 _atom_site_fract_y
 _atom_site_fract_z
 _atom_site_occupancy
 _atom_site_charge
Cd  Cd1  1  0.17429000  0.51286000  0.02395000  1.0 0.802410916
Cd  Cd2  1  0.82571000  0.48714000  0.97605000  1.0 0.802410916
Cd  Cd3  1  0.32456000  0.35049000  0.28521000  1.0 0.7398879086
Cd  Cd4  1  0.67544000  0.64951000  0.71479000  1.0 0.7398879086
H  H1  1  0.06180000  0.74000000  0.85120000  1.0 0.1069287291
H  H2  1  0.93820000  0.26000000  0.14880000  1.0 0.1069287291
H  H3  1  0.08590000  0.93970000  0.79590000  1.0 0.1290680921
H  H4  1  0.91410000  0.06030000  0.20410000  1.0 0.1290680921
H  H5  1  0.18430000  0.05420000  0.89960000  1.0 0.1154487883
H  H6  1  0.81570000  0.94580000  0.10040000  1.0 0.1154487883
H  H7  1  0.27660000  0.96330000  0.05090000  1.0 0.1290680921
H  H8  1  0.72340000  0.03670000  0.94910000  1.0 0.1290680921
H  H9  1  0.62350000  0.58090000  0.31360000  1.0 0.1407791233
H  H10  1  0.37650000  0.41910000  0.68640000  1.0 0.1407791233
H  H11  1  0.73110000  0.58290000  0.46510000  1.0 0.1069287291
H  H12  1  0.26890000  0.41710000  0.53490000  1.0 0.1069287291
H  H13  1  0.37480000  0.73170000  0.62560000  1.0 0.1026127219
H  H14  1  0.62520000  0.26830000  0.37440000  1.0 0.1026127219
H  H15  1  0.26160000  0.74880000  0.47440000  1.0 0.1407791233
H  H16  1  0.73840000  0.25120000  0.52560000  1.0 0.1407791233
H  H17  1  0.13140000  0.93480000  0.30340000  1.0 0.1502778983
H  H18  1  0.86860000  0.06520000  0.69660000  1.0 0.1502778983
H  H19  1  0.14790000  0.13240000  0.34900000  1.0 0.1026127219
H  H20  1  0.85210000  0.86760000  0.65100000  1.0 0.1026127219
H  H21  1  0.54440000  0.09080000  0.22670000  1.0 0.1026127219
H  H22  1  0.45560000  0.90920000  0.77330000  1.0 0.1026127219
H  H23  1  0.54710000  0.88860000  0.18360000  1.0 0.1502778983
H  H24  1  0.45290000  0.11140000  0.81640000  1.0 0.1502778983
C  C1  1  0.10530000  0.78530000  0.89270000  1.0 0.0908206036
C  C2  1  0.89470000  0.21470000  0.10730000  1.0 0.0908206036
C  C3  1  0.11840000  0.90580000  0.85930000  1.0 -0.1415285463
C  C4  1  0.88160000  0.09420000  0.14070000  1.0 -0.1415285463
C  C5  1  0.17840000  0.97230000  0.91920000  1.0 -0.0381194422
C  C6  1  0.82160000  0.02770000  0.08080000  1.0 -0.0381194422
C  C7  1  0.23130000  0.91890000  0.01000000  1.0 -0.1661840523
C  C8  1  0.76870000  0.08110000  0.99000000  1.0 -0.1661840523
C  C9  1  0.21680000  0.80070000  0.03960000  1.0 0.1290680921
C  C10  1  0.78320000  0.19930000  0.96040000  1.0 0.1290680921
C  C11  1  0.26570000  0.72870000  0.13580000  1.0 0.2344143992
C  C12  1  0.73430000  0.27130000  0.86420000  1.0 0.2344143992
C  C13  1  0.35950000  0.66590000  0.28010000  1.0 0.2579361355
C  C14  1  0.64050000  0.33410000  0.71990000  1.0 0.2579361355
C  C15  1  0.43110000  0.66520000  0.37740000  1.0 0.0561041278
C  C16  1  0.56890000  0.33480000  0.62260000  1.0 0.0561041278
C  C17  1  0.57090000  0.61500000  0.37590000  1.0 -0.1606285716
C  C18  1  0.42910000  0.38500000  0.62410000  1.0 -0.1606285716
C  C19  1  0.63440000  0.61500000  0.46780000  1.0 0.0908206036
C  C20  1  0.36560000  0.38500000  0.53220000  1.0 0.0908206036
C  C21  1  0.42690000  0.70390000  0.56090000  1.0 0.0803639149
C  C22  1  0.57310000  0.29610000  0.43910000  1.0 0.0803639149
C  C23  1  0.35700000  0.71210000  0.47100000  1.0 -0.1827691714
C  C24  1  0.64300000  0.28790000  0.52900000  1.0 -0.1827691714
C  C25  1  0.33770000  0.89200000  0.24090000  1.0 0.1920848047
C  C26  1  0.66230000  0.10800000  0.75910000  1.0 0.1920848047
C  C27  1  0.21740000  0.96420000  0.28830000  1.0 -0.2275043646
C  C28  1  0.78260000  0.03580000  0.71170000  1.0 -0.2275043646
C  C29  1  0.22760000  0.08330000  0.31340000  1.0 0.0803639149
C  C30  1  0.77240000  0.91670000  0.68660000  1.0 0.0803639149
C  C31  1  0.46050000  0.05820000  0.24260000  1.0 0.1069287291
C  C32  1  0.53950000  0.94180000  0.75740000  1.0 0.1069287291
C  C33  1  0.46430000  0.93660000  0.21610000  1.0 -0.2220508674
C  C34  1  0.53570000  0.06340000  0.78390000  1.0 -0.2220508674
N  N1  1  0.15240000  0.73240000  0.98160000  1.0 -0.2617457355
N  N2  1  0.84760000  0.26760000  0.01840000  1.0 -0.2617457355
N  N3  1  0.26420000  0.61260000  0.15010000  1.0 -0.2095577935
N  N4  1  0.73580000  0.38740000  0.84990000  1.0 -0.2095577935
N  N5  1  0.32200000  0.57150000  0.24280000  1.0 -0.2095577935
N  N6  1  0.67800000  0.42850000  0.75720000  1.0 -0.2095577935
N  N7  1  0.32800000  0.76790000  0.21580000  1.0 -0.1012606913
N  N8  1  0.67200000  0.23210000  0.78420000  1.0 -0.1012606913
N  N9  1  0.56380000  0.65850000  0.55900000  1.0 -0.2220508674
N  N10  1  0.43620000  0.34150000  0.44100000  1.0 -0.2220508674
N  N11  1  0.34750000  0.12880000  0.28800000  1.0 -0.2220508674
N  N12  1  0.65250000  0.87120000  0.71200000  1.0 -0.2220508674
N  N13  1  0.94080000  0.56040000  0.09970000  1.0 -0.5200957203
N  N14  1  0.05920000  0.43960000  0.90030000  1.0 -0.5200957203
N  N15  1  0.89780000  0.64200000  0.15440000  1.0 0.4310495114
N  N16  1  0.10220000  0.35800000  0.84560000  1.0 0.4310495114
N  N17  1  0.85720000  0.72660000  0.20860000  1.0 -0.4205268169
N  N18  1  0.14280000  0.27340000  0.79140000  1.0 -0.4205268169
N  N19  1  0.24120000  0.33690000  0.11880000  1.0 -0.5551377977
N  N20  1  0.75880000  0.66310000  0.88120000  1.0 -0.5551377977
N  N21  1  0.30790000  0.25520000  0.06430000  1.0 0.4132035976
N  N22  1  0.69210000  0.74480000  0.93570000  1.0 0.4132035976
N  N23  1  0.37180000  0.17780000  0.01430000  1.0 -0.3265435243
N  N24  1  0.62820000  0.82220000  0.98570000  1.0 -0.3265435243
N  N25  1  0.11180000  0.38010000  0.38650000  1.0 -0.4684955472
N  N26  1  0.88820000  0.61990000  0.61350000  1.0 -0.4684955472
N  N27  1  0.00510000  0.38850000  0.36010000  1.0 0.4040375357
N  N28  1  0.99490000  0.61150000  0.63990000  1.0 0.4040375357
N  N29  1  0.89250000  0.39200000  0.33610000  1.0 -0.430441841
N  N30  1  0.10750000  0.60800000  0.66390000  1.0 -0.430441841
N  N31  1  0.44970000  0.66710000  0.81000000  1.0 -0.46235308
N  N32  1  0.55030000  0.33290000  0.19000000  1.0 -0.46235308
N  N33  1  0.41250000  0.58200000  0.85610000  1.0 0.4240667378
N  N34  1  0.58750000  0.41800000  0.14390000  1.0 0.4240667378
N  N35  1  0.37600000  0.49360000  0.90100000  1.0 -0.46235308
N  N36  1  0.62400000  0.50640000  0.09900000  1.0 -0.46235308
