# DDEC6 charges by PACMAN v1.1 (https://github.com/mtap-research/PACMAN-charge/)
data_YABWOP_FSR_pacman
_symmetry_space_group_name_H-M   'P 1'
_cell_length_a   8.91786000
_cell_length_b   8.91786000
_cell_length_c   18.38660000
_cell_angle_alpha   81.74580000
_cell_angle_beta   98.25420000
_cell_angle_gamma   76.68350000
_symmetry_Int_Tables_number   1
_chemical_formula_structural   V5P4H4C2(O9F)2
_chemical_formula_sum   'V10 P8 H8 C4 O36 F4'
_cell_volume   1384.30835656
_cell_formula_units_Z   2
loop_
 _symmetry_equiv_pos_site_id
 _symmetry_equiv_pos_as_xyz
  1  'x, y, z'
loop_
 _atom_site_type_symbol
 _atom_site_label
 _atom_site_symmetry_multiplicity
 _atom_site_fract_x
 _atom_site_fract_y
 _atom_site_fract_z
 _atom_site_occupancy
 _atom_site_charge
V  V1  1  0.22540000  0.22540000  0.50000000  1.0 1.9067602298
V  V2  1  0.29571000  0.29571000  0.00000000  1.0 1.899530544
V  V3  1  0.80020000  0.75840000  0.72495000  1.0 0.7816300234
V  V4  1  0.75840000  0.80020000  0.27505000  1.0 0.7816300234
V  V5  1  0.31651000  0.75605000  0.77307000  1.0 0.7377635182
V  V6  1  0.75605000  0.31651000  0.22693000  1.0 0.7377635182
V  V7  1  0.72750000  0.75850000  0.77270000  1.0 0.7552111289
V  V8  1  0.75850000  0.72750000  0.22730000  1.0 0.7377635182
V  V9  1  0.21180000  0.75940000  0.72650000  1.0 0.7729063175
V  V10  1  0.75940000  0.21180000  0.27350000  1.0 0.7729063175
P  P1  1  0.43927000  0.93987000  0.64002000  1.0 1.4211155913
P  P2  1  0.93987000  0.43927000  0.35998000  1.0 1.4211155913
P  P3  1  0.09176000  0.57366000  0.85781000  1.0 1.3944735668
P  P4  1  0.57366000  0.09176000  0.14219000  1.0 1.3944735668
P  P5  1  0.52608000  0.59590000  0.66253000  1.0 1.4366099975
P  P6  1  0.59590000  0.52608000  0.33747000  1.0 1.4366099975
P  P7  1  0.00341000  0.91703000  0.83586000  1.0 1.3677617452
P  P8  1  0.91703000  0.00341000  0.16414000  1.0 1.3677617452
H  H1  1  0.35780000  0.77900000  0.56390000  1.0 0.239797962
H  H2  1  0.77900000  0.35780000  0.43610000  1.0 0.239797962
H  H3  1  0.53250000  0.77990000  0.55980000  1.0 0.239797962
H  H4  1  0.77990000  0.53250000  0.44020000  1.0 0.239797962
H  H5  1  0.98300000  0.73440000  0.93540000  1.0 0.239797962
H  H6  1  0.73440000  0.98300000  0.06460000  1.0 0.239797962
H  H7  1  0.15970000  0.73570000  0.93780000  1.0 0.239797962
H  H8  1  0.73570000  0.15970000  0.06220000  1.0 0.239797962
C  C1  1  0.45830000  0.77590000  0.59330000  1.0 -0.77312027
C  C2  1  0.77590000  0.45830000  0.40670000  1.0 -0.77312027
C  C3  1  0.06300000  0.73860000  0.90510000  1.0 -0.7781260668
C  C4  1  0.73860000  0.06300000  0.09490000  1.0 -0.77312027
O  O1  1  0.38580000  0.38580000  0.50000000  1.0 0.5704737446
O  O2  1  0.11040000  0.11040000  0.50000000  1.0 -0.6806598165
O  O3  1  0.39100000  0.09680000  0.58757000  1.0 -0.77312027
O  O4  1  0.09680000  0.39100000  0.41243000  1.0 -0.77312027
O  O5  1  0.31708000  0.92368000  0.68993000  1.0 -0.6976136425
O  O6  1  0.92368000  0.31708000  0.31007000  1.0 -0.6976136425
O  O7  1  0.40272000  0.60152000  0.71378000  1.0 -0.6806598165
O  O8  1  0.60152000  0.40272000  0.28622000  1.0 -0.6806598165
O  O9  1  0.54110000  0.45630000  0.62426000  1.0 -0.5934415915
O  O10  1  0.45630000  0.54110000  0.37574000  1.0 -0.5934415915
O  O11  1  0.68372000  0.59952000  0.70892000  1.0 -0.6927460143
O  O12  1  0.59952000  0.68372000  0.29108000  1.0 -0.6927460143
O  O13  1  0.60003000  0.92443000  0.68797000  1.0 -0.6806598165
O  O14  1  0.92443000  0.60003000  0.31203000  1.0 -0.6806598165
O  O15  1  0.85000000  0.91300000  0.78661000  1.0 -0.6806598165
O  O16  1  0.91300000  0.85000000  0.21339000  1.0 -0.6806598165
O  O17  1  0.93567000  0.58987000  0.80514000  1.0 -0.6927460143
O  O18  1  0.58987000  0.93567000  0.19486000  1.0 -0.6927460143
O  O19  1  0.98281000  0.05681000  0.87390000  1.0 -0.612739996
O  O20  1  0.05681000  0.98281000  0.12610000  1.0 -0.612739996
O  O21  1  0.13280000  0.91200000  0.78813000  1.0 -0.4516141125
O  O22  1  0.91200000  0.13280000  0.21187000  1.0 -0.4516141125
O  O23  1  0.22178000  0.58778000  0.81263000  1.0 -0.6806598165
O  O24  1  0.58778000  0.22178000  0.18737000  1.0 -0.6806598165
O  O25  1  0.13270000  0.41710000  0.91010000  1.0 -0.7781260668
O  O26  1  0.41710000  0.13270000  0.08990000  1.0 -0.7781260668
O  O27  1  0.13360000  0.13360000  0.00000000  1.0 0.5704737446
O  O28  1  0.41040000  0.41040000  0.00000000  1.0 -0.6456298688
O  O29  1  0.45840000  0.75320000  0.83719000  1.0 -0.2356781521
O  O30  1  0.75320000  0.45840000  0.16281000  1.0 -0.2288648048
O  O31  1  0.89722000  0.76942000  0.65907000  1.0 -0.2773151556
O  O32  1  0.76942000  0.89722000  0.34093000  1.0 -0.2734951236
O  O33  1  0.02540000  0.81740000  0.71980000  1.0 0.0701232917
O  O34  1  0.81740000  0.02540000  0.28020000  1.0 0.0784647531
O  O35  1  0.62200000  0.75600000  0.83970000  1.0 -0.2773151556
O  O36  1  0.75600000  0.62200000  0.16030000  1.0 -0.2734951236
F  F1  1  0.13750000  0.35730000  0.56695000  1.0 -0.5780480364
F  F2  1  0.35730000  0.13750000  0.43305000  1.0 -0.5780480364
F  F3  1  0.38759000  0.15959000  0.93599000  1.0 -0.5780480364
F  F4  1  0.15959000  0.38759000  0.06401000  1.0 -0.5780480364
