# DDEC6 charges by PACMAN v1.1 (https://github.com/mtap-research/PACMAN-charge/)
data_YAFJEX_ASR_pacman
_symmetry_space_group_name_H-M   'P 1'
_cell_length_a   16.46180000
_cell_length_b   16.46180000
_cell_length_c   16.46180000
_cell_angle_alpha   68.55230000
_cell_angle_beta   68.55230000
_cell_angle_gamma   68.55230000
_symmetry_Int_Tables_number   1
_chemical_formula_structural   CuH11C12(NO2)2
_chemical_formula_sum   'Cu6 H66 C72 N12 O24'
_cell_volume   3723.45662078
_cell_formula_units_Z   6
loop_
 _symmetry_equiv_pos_site_id
 _symmetry_equiv_pos_as_xyz
  1  'x, y, z'
loop_
 _atom_site_type_symbol
 _atom_site_label
 _atom_site_symmetry_multiplicity
 _atom_site_fract_x
 _atom_site_fract_y
 _atom_site_fract_z
 _atom_site_occupancy
 _atom_site_charge
Cu  Cu1  1  0.92353000  0.49466000  0.49466000  1.0 0.8657099853
Cu  Cu2  1  0.49466000  0.49466000  0.92353000  1.0 0.8657099853
Cu  Cu3  1  0.49466000  0.92353000  0.49466000  1.0 0.8657099853
Cu  Cu4  1  0.07647000  0.50534000  0.50534000  1.0 0.8657099853
Cu  Cu5  1  0.50534000  0.50534000  0.07647000  1.0 0.8657099853
Cu  Cu6  1  0.50534000  0.07647000  0.50534000  1.0 0.8657099853
H  H1  1  0.77005000  0.47280000  0.77005000  1.0 0.137173767
H  H2  1  0.47280000  0.77005000  0.77005000  1.0 0.137173767
H  H3  1  0.77005000  0.77005000  0.47280000  1.0 0.137173767
H  H4  1  0.22995000  0.22995000  0.52720000  1.0 0.137173767
H  H5  1  0.22995000  0.52720000  0.22995000  1.0 0.137173767
H  H6  1  0.52720000  0.22995000  0.22995000  1.0 0.137173767
H  H7  1  0.00410000  0.47760000  0.78530000  1.0 0.1287757867
H  H8  1  0.47760000  0.78530000  0.00410000  1.0 0.1287757867
H  H9  1  0.78530000  0.00410000  0.47760000  1.0 0.1287757867
H  H10  1  0.99590000  0.21470000  0.52240000  1.0 0.1287757867
H  H11  1  0.21470000  0.52240000  0.99590000  1.0 0.1287757867
H  H12  1  0.52240000  0.99590000  0.21470000  1.0 0.1287757867
H  H13  1  0.99590000  0.52240000  0.21470000  1.0 0.1287757867
H  H14  1  0.52240000  0.21470000  0.99590000  1.0 0.1287757867
H  H15  1  0.21470000  0.99590000  0.52240000  1.0 0.1287757867
H  H16  1  0.00410000  0.78530000  0.47760000  1.0 0.1287757867
H  H17  1  0.78530000  0.47760000  0.00410000  1.0 0.1287757867
H  H18  1  0.47760000  0.00410000  0.78530000  1.0 0.1287757867
H  H19  1  0.06650000  0.40400000  0.96630000  1.0 0.0696578362
H  H20  1  0.40400000  0.96630000  0.06650000  1.0 0.0696578362
H  H21  1  0.96630000  0.06650000  0.40400000  1.0 0.0696578362
H  H22  1  0.93350000  0.03370000  0.59600000  1.0 0.0696578362
H  H23  1  0.03370000  0.59600000  0.93350000  1.0 0.0696578362
H  H24  1  0.59600000  0.93350000  0.03370000  1.0 0.0696578362
H  H25  1  0.93350000  0.59600000  0.03370000  1.0 0.0696578362
H  H26  1  0.59600000  0.03370000  0.93350000  1.0 0.0696578362
H  H27  1  0.03370000  0.93350000  0.59600000  1.0 0.0696578362
H  H28  1  0.06650000  0.96630000  0.40400000  1.0 0.0696578362
H  H29  1  0.96630000  0.40400000  0.06650000  1.0 0.0696578362
H  H30  1  0.40400000  0.06650000  0.96630000  1.0 0.0696578362
H  H31  1  0.07590000  0.46460000  0.86480000  1.0 0.0605527898
H  H32  1  0.46460000  0.86480000  0.07590000  1.0 0.0605527898
H  H33  1  0.86480000  0.07590000  0.46460000  1.0 0.0605527898
H  H34  1  0.92410000  0.13520000  0.53540000  1.0 0.0605527898
H  H35  1  0.13520000  0.53540000  0.92410000  1.0 0.0605527898
H  H36  1  0.53540000  0.92410000  0.13520000  1.0 0.0605527898
H  H37  1  0.92410000  0.53540000  0.13520000  1.0 0.0605527898
H  H38  1  0.53540000  0.13520000  0.92410000  1.0 0.0605527898
H  H39  1  0.13520000  0.92410000  0.53540000  1.0 0.0605527898
H  H40  1  0.07590000  0.86480000  0.46460000  1.0 0.0605527898
H  H41  1  0.86480000  0.46460000  0.07590000  1.0 0.0605527898
H  H42  1  0.46460000  0.07590000  0.86480000  1.0 0.0605527898
H  H43  1  0.05490000  0.52380000  0.84970000  1.0 0.0605527898
H  H44  1  0.52380000  0.84970000  0.05490000  1.0 0.0605527898
H  H45  1  0.84970000  0.05490000  0.52380000  1.0 0.0605527898
H  H46  1  0.94510000  0.15030000  0.47620000  1.0 0.0605527898
H  H47  1  0.15030000  0.47620000  0.94510000  1.0 0.0605527898
H  H48  1  0.47620000  0.94510000  0.15030000  1.0 0.0605527898
H  H49  1  0.94510000  0.47620000  0.15030000  1.0 0.0605527898
H  H50  1  0.47620000  0.15030000  0.94510000  1.0 0.0605527898
H  H51  1  0.15030000  0.94510000  0.47620000  1.0 0.0605527898
H  H52  1  0.05490000  0.84970000  0.52380000  1.0 0.0605527898
H  H53  1  0.84970000  0.52380000  0.05490000  1.0 0.0605527898
H  H54  1  0.52380000  0.05490000  0.84970000  1.0 0.0605527898
H  H55  1  0.99770000  0.58930000  0.91370000  1.0 0.0605527898
H  H56  1  0.58930000  0.91370000  0.99770000  1.0 0.0605527898
H  H57  1  0.91370000  0.99770000  0.58930000  1.0 0.0605527898
H  H58  1  0.00230000  0.08630000  0.41070000  1.0 0.0605527898
H  H59  1  0.08630000  0.41070000  0.00230000  1.0 0.0605527898
H  H60  1  0.41070000  0.00230000  0.08630000  1.0 0.0605527898
H  H61  1  0.00230000  0.41070000  0.08630000  1.0 0.0605527898
H  H62  1  0.41070000  0.08630000  0.00230000  1.0 0.0605527898
H  H63  1  0.08630000  0.00230000  0.41070000  1.0 0.0605527898
H  H64  1  0.99770000  0.91370000  0.58930000  1.0 0.0605527898
H  H65  1  0.91370000  0.58930000  0.99770000  1.0 0.0605527898
H  H66  1  0.58930000  0.99770000  0.91370000  1.0 0.0605527898
C  C1  1  0.93450000  0.48020000  0.66690000  1.0 0.572567463
C  C2  1  0.48020000  0.66690000  0.93450000  1.0 0.572567463
C  C3  1  0.66690000  0.93450000  0.48020000  1.0 0.572567463
C  C4  1  0.06550000  0.33310000  0.51980000  1.0 0.572567463
C  C5  1  0.33310000  0.51980000  0.06550000  1.0 0.572567463
C  C6  1  0.51980000  0.06550000  0.33310000  1.0 0.572567463
C  C7  1  0.06550000  0.51980000  0.33310000  1.0 0.572567463
C  C8  1  0.51980000  0.33310000  0.06550000  1.0 0.572567463
C  C9  1  0.33310000  0.06550000  0.51980000  1.0 0.572567463
C  C10  1  0.93450000  0.66690000  0.48020000  1.0 0.572567463
C  C11  1  0.66690000  0.48020000  0.93450000  1.0 0.572567463
C  C12  1  0.48020000  0.93450000  0.66690000  1.0 0.572567463
C  C13  1  0.80385000  0.47420000  0.80385000  1.0 -0.1255552639
C  C14  1  0.47420000  0.80385000  0.80385000  1.0 -0.1255552639
C  C15  1  0.80385000  0.80385000  0.47420000  1.0 -0.1255552639
C  C16  1  0.19615000  0.19615000  0.52580000  1.0 -0.1255552639
C  C17  1  0.19615000  0.52580000  0.19615000  1.0 -0.1255552639
C  C18  1  0.52580000  0.19615000  0.19615000  1.0 -0.1246843015
C  C19  1  0.89381000  0.47531000  0.76441000  1.0 -0.0140639286
C  C20  1  0.47531000  0.76441000  0.89381000  1.0 -0.0140639286
C  C21  1  0.76441000  0.89381000  0.47531000  1.0 -0.0140639286
C  C22  1  0.10619000  0.23559000  0.52469000  1.0 -0.0140639286
C  C23  1  0.23559000  0.52469000  0.10619000  1.0 -0.0140639286
C  C24  1  0.52469000  0.10619000  0.23559000  1.0 -0.0140639286
C  C25  1  0.10619000  0.52469000  0.23559000  1.0 -0.0140639286
C  C26  1  0.52469000  0.23559000  0.10619000  1.0 -0.0140639286
C  C27  1  0.23559000  0.10619000  0.52469000  1.0 -0.0140639286
C  C28  1  0.89381000  0.76441000  0.47531000  1.0 -0.0140639286
C  C29  1  0.76441000  0.47531000  0.89381000  1.0 -0.0140639286
C  C30  1  0.47531000  0.89381000  0.76441000  1.0 -0.0140639286
C  C31  1  0.94373000  0.47733000  0.81273000  1.0 -0.2593764526
C  C32  1  0.47733000  0.81273000  0.94373000  1.0 -0.2593764526
C  C33  1  0.81273000  0.94373000  0.47733000  1.0 -0.2593764526
C  C34  1  0.05627000  0.18727000  0.52267000  1.0 -0.2593764526
C  C35  1  0.18727000  0.52267000  0.05627000  1.0 -0.2593764526
C  C36  1  0.52267000  0.05627000  0.18727000  1.0 -0.2593764526
C  C37  1  0.05627000  0.52267000  0.18727000  1.0 -0.2593764526
C  C38  1  0.52267000  0.18727000  0.05627000  1.0 -0.2593764526
C  C39  1  0.18727000  0.05627000  0.52267000  1.0 -0.2593764526
C  C40  1  0.94373000  0.81273000  0.47733000  1.0 -0.2593764526
C  C41  1  0.81273000  0.47733000  0.94373000  1.0 -0.2593764526
C  C42  1  0.47733000  0.94373000  0.81273000  1.0 -0.2593764526
C  C43  1  0.90500000  0.47920000  0.90500000  1.0 0.1674501906
C  C44  1  0.47920000  0.90500000  0.90500000  1.0 0.1674501906
C  C45  1  0.90500000  0.90500000  0.47920000  1.0 0.1674501906
C  C46  1  0.09500000  0.09500000  0.52080000  1.0 0.1637092333
C  C47  1  0.09500000  0.52080000  0.09500000  1.0 0.1674501906
C  C48  1  0.52080000  0.09500000  0.09500000  1.0 0.1674501906
C  C49  1  0.04881000  0.46461000  0.92791000  1.0 -0.0555122943
C  C50  1  0.46461000  0.92791000  0.04881000  1.0 -0.0555122943
C  C51  1  0.92791000  0.04881000  0.46461000  1.0 -0.0493037096
C  C52  1  0.95119000  0.07209000  0.53539000  1.0 -0.0493037096
C  C53  1  0.07209000  0.53539000  0.95119000  1.0 -0.0555122943
C  C54  1  0.53539000  0.95119000  0.07209000  1.0 -0.0555122943
C  C55  1  0.95119000  0.53539000  0.07209000  1.0 -0.0555122943
C  C56  1  0.53539000  0.07209000  0.95119000  1.0 -0.0555122943
C  C57  1  0.07209000  0.95119000  0.53539000  1.0 -0.0493037096
C  C58  1  0.04881000  0.92791000  0.46461000  1.0 -0.0493037096
C  C59  1  0.92791000  0.46461000  0.04881000  1.0 -0.0555122943
C  C60  1  0.46461000  0.04881000  0.92791000  1.0 -0.0493037096
C  C61  1  0.02490000  0.52660000  0.91170000  1.0 -0.0409429739
C  C62  1  0.52660000  0.91170000  0.02490000  1.0 -0.0493037096
C  C63  1  0.91170000  0.02490000  0.52660000  1.0 -0.0409429739
C  C64  1  0.97510000  0.08830000  0.47340000  1.0 -0.0409429739
C  C65  1  0.08830000  0.47340000  0.97510000  1.0 -0.0493037096
C  C66  1  0.47340000  0.97510000  0.08830000  1.0 -0.0493037096
C  C67  1  0.97510000  0.47340000  0.08830000  1.0 -0.0493037096
C  C68  1  0.47340000  0.08830000  0.97510000  1.0 -0.0493037096
C  C69  1  0.08830000  0.97510000  0.47340000  1.0 -0.0493037096
C  C70  1  0.02490000  0.91170000  0.52660000  1.0 -0.0409429739
C  C71  1  0.91170000  0.52660000  0.02490000  1.0 -0.0493037096
C  C72  1  0.52660000  0.02490000  0.91170000  1.0 -0.0409429739
N  N1  1  0.94870000  0.50220000  0.94870000  1.0 -0.0493037096
N  N2  1  0.50220000  0.94870000  0.94870000  1.0 -0.0493037096
N  N3  1  0.94870000  0.94870000  0.50220000  1.0 -0.0493037096
N  N4  1  0.05130000  0.05130000  0.49780000  1.0 -0.0493037096
N  N5  1  0.05130000  0.49780000  0.05130000  1.0 -0.0493037096
N  N6  1  0.49780000  0.05130000  0.05130000  1.0 -0.0493037096
N  N7  1  0.95870000  0.47080000  0.95870000  1.0 -0.0409429739
N  N8  1  0.47080000  0.95870000  0.95870000  1.0 -0.0409429739
N  N9  1  0.95870000  0.95870000  0.47080000  1.0 -0.0409429739
N  N10  1  0.04130000  0.04130000  0.52920000  1.0 -0.0409429739
N  N11  1  0.04130000  0.52920000  0.04130000  1.0 -0.0409429739
N  N12  1  0.52920000  0.04130000  0.04130000  1.0 -0.0409429739
O  O1  1  0.88589000  0.47819000  0.62389000  1.0 -0.5364976127
O  O2  1  0.47819000  0.62389000  0.88589000  1.0 -0.5364976127
O  O3  1  0.62389000  0.88589000  0.47819000  1.0 -0.5364976127
O  O4  1  0.11411000  0.37611000  0.52181000  1.0 -0.5364976127
O  O5  1  0.37611000  0.52181000  0.11411000  1.0 -0.5364976127
O  O6  1  0.52181000  0.11411000  0.37611000  1.0 -0.5364976127
O  O7  1  0.11411000  0.52181000  0.37611000  1.0 -0.5364976127
O  O8  1  0.52181000  0.37611000  0.11411000  1.0 -0.5364976127
O  O9  1  0.37611000  0.11411000  0.52181000  1.0 -0.5364976127
O  O10  1  0.88589000  0.62389000  0.47819000  1.0 -0.5364976127
O  O11  1  0.62389000  0.47819000  0.88589000  1.0 -0.5364976127
O  O12  1  0.47819000  0.88589000  0.62389000  1.0 -0.5364976127
O  O13  1  0.01351000  0.48701000  0.63451000  1.0 -0.521002839
O  O14  1  0.48701000  0.63451000  0.01351000  1.0 -0.521002839
O  O15  1  0.63451000  0.01351000  0.48701000  1.0 -0.521002839
O  O16  1  0.98649000  0.36549000  0.51299000  1.0 -0.521002839
O  O17  1  0.36549000  0.51299000  0.98649000  1.0 -0.521002839
O  O18  1  0.51299000  0.98649000  0.36549000  1.0 -0.521002839
O  O19  1  0.98649000  0.51299000  0.36549000  1.0 -0.521002839
O  O20  1  0.51299000  0.36549000  0.98649000  1.0 -0.521002839
O  O21  1  0.36549000  0.98649000  0.51299000  1.0 -0.521002839
O  O22  1  0.01351000  0.63451000  0.48701000  1.0 -0.521002839
O  O23  1  0.63451000  0.48701000  0.01351000  1.0 -0.521002839
O  O24  1  0.48701000  0.01351000  0.63451000  1.0 -0.521002839
