# DDEC6 charges by PACMAN v1.1 (https://github.com/mtap-research/PACMAN-charge/)
data_YAFXEM_FSR_pacman
_symmetry_space_group_name_H-M   'P 1'
_cell_length_a   22.07400000
_cell_length_b   22.07400000
_cell_length_c   22.07400000
_cell_angle_alpha   60.00000000
_cell_angle_beta   60.00000000
_cell_angle_gamma   60.00000000
_symmetry_Int_Tables_number   1
_chemical_formula_structural   Zn5Cu4H20C36N18(Cl2O3)2
_chemical_formula_sum   'Zn10 Cu8 H40 C72 N36 Cl8 O12'
_cell_volume   7605.50606174
_cell_formula_units_Z   2
loop_
 _symmetry_equiv_pos_site_id
 _symmetry_equiv_pos_as_xyz
  1  'x, y, z'
loop_
 _atom_site_type_symbol
 _atom_site_label
 _atom_site_symmetry_multiplicity
 _atom_site_fract_x
 _atom_site_fract_y
 _atom_site_fract_z
 _atom_site_occupancy
 _atom_site_charge
Zn  Zn1  1  0.75000000  0.75000000  0.75000000  1.0 0.3018727331
Zn  Zn2  1  0.25000000  0.25000000  0.25000000  1.0 0.3018727331
Zn  Zn3  1  0.81490000  0.55530000  0.81490000  1.0 0.5908072619
Zn  Zn4  1  0.81490000  0.81490000  0.81490000  1.0 0.5908072619
Zn  Zn5  1  0.55530000  0.81490000  0.81490000  1.0 0.5908072619
Zn  Zn6  1  0.81490000  0.81490000  0.55530000  1.0 0.5908072619
Zn  Zn7  1  0.18510000  0.18510000  0.18510000  1.0 0.5908072619
Zn  Zn8  1  0.18510000  0.44470000  0.18510000  1.0 0.5908072619
Zn  Zn9  1  0.44470000  0.18510000  0.18510000  1.0 0.5908072619
Zn  Zn10  1  0.18510000  0.18510000  0.44470000  1.0 0.5908072619
Cu  Cu1  1  0.81613000  0.55161000  0.81613000  1.0 0.276652283
Cu  Cu2  1  0.81613000  0.81613000  0.81613000  1.0 0.276652283
Cu  Cu3  1  0.55161000  0.81613000  0.81613000  1.0 0.276652283
Cu  Cu4  1  0.81613000  0.81613000  0.55161000  1.0 0.276652283
Cu  Cu5  1  0.18387000  0.18387000  0.18387000  1.0 0.276652283
Cu  Cu6  1  0.18387000  0.44839000  0.18387000  1.0 0.276652283
Cu  Cu7  1  0.44839000  0.18387000  0.18387000  1.0 0.276652283
Cu  Cu8  1  0.18387000  0.18387000  0.44839000  1.0 0.276652283
H  H1  1  0.92426000  0.46706000  0.68442000  1.0 0.1219388712
H  H2  1  0.68442000  0.92426000  0.92426000  1.0 0.1219388712
H  H3  1  0.46706000  0.92426000  0.92426000  1.0 0.1219388712
H  H4  1  0.92426000  0.68442000  0.46706000  1.0 0.1219388712
H  H5  1  0.46706000  0.68442000  0.92426000  1.0 0.1219388712
H  H6  1  0.92426000  0.92426000  0.68442000  1.0 0.1219388712
H  H7  1  0.92426000  0.92426000  0.46706000  1.0 0.1219388712
H  H8  1  0.68442000  0.46706000  0.92426000  1.0 0.1219388712
H  H9  1  0.68442000  0.92426000  0.46706000  1.0 0.1219388712
H  H10  1  0.92426000  0.68442000  0.92426000  1.0 0.1219388712
H  H11  1  0.92426000  0.46706000  0.92426000  1.0 0.1219388712
H  H12  1  0.46706000  0.92426000  0.68442000  1.0 0.1219388712
H  H13  1  0.07574000  0.07574000  0.31558000  1.0 0.1219388712
H  H14  1  0.31558000  0.53294000  0.07574000  1.0 0.1219388712
H  H15  1  0.53294000  0.31558000  0.07574000  1.0 0.1219388712
H  H16  1  0.07574000  0.07574000  0.53294000  1.0 0.1219388712
H  H17  1  0.53294000  0.07574000  0.07574000  1.0 0.1219388712
H  H18  1  0.07574000  0.53294000  0.31558000  1.0 0.1219388712
H  H19  1  0.07574000  0.31558000  0.53294000  1.0 0.1219388712
H  H20  1  0.31558000  0.07574000  0.07574000  1.0 0.1219388712
H  H21  1  0.31558000  0.07574000  0.53294000  1.0 0.1219388712
H  H22  1  0.07574000  0.53294000  0.07574000  1.0 0.1219388712
H  H23  1  0.07574000  0.31558000  0.07574000  1.0 0.1219388712
H  H24  1  0.53294000  0.07574000  0.31558000  1.0 0.1219388712
H  H25  1  0.84500000  0.46500000  0.84500000  1.0 0.1219388712
H  H26  1  0.87400000  0.37800000  0.87400000  1.0 0.2183387494
H  H27  1  0.84500000  0.84500000  0.84500000  1.0 0.1219388712
H  H28  1  0.87400000  0.87400000  0.87400000  1.0 0.2183387494
H  H29  1  0.46500000  0.84500000  0.84500000  1.0 0.1219388712
H  H30  1  0.37800000  0.87400000  0.87400000  1.0 0.2183387494
H  H31  1  0.84500000  0.84500000  0.46500000  1.0 0.1219388712
H  H32  1  0.87400000  0.87400000  0.37800000  1.0 0.2183387494
H  H33  1  0.15500000  0.15500000  0.15500000  1.0 0.1219388712
H  H34  1  0.12600000  0.12600000  0.12600000  1.0 0.2183387494
H  H35  1  0.15500000  0.53500000  0.15500000  1.0 0.1219388712
H  H36  1  0.12600000  0.62200000  0.12600000  1.0 0.2183387494
H  H37  1  0.53500000  0.15500000  0.15500000  1.0 0.1219388712
H  H38  1  0.62200000  0.12600000  0.12600000  1.0 0.2183387494
H  H39  1  0.15500000  0.15500000  0.53500000  1.0 0.1219388712
H  H40  1  0.12600000  0.12600000  0.62200000  1.0 0.2183387494
C  C1  1  0.88482000  0.58228000  0.64808000  1.0 0.1344292043
C  C2  1  0.92408000  0.51126000  0.64058000  1.0 -0.3305621677
C  C3  1  0.96259000  0.50467000  0.57015000  1.0 0.1740604739
C  C4  1  0.64808000  0.88482000  0.88482000  1.0 0.1351685552
C  C5  1  0.64058000  0.92408000  0.92408000  1.0 -0.3305621677
C  C6  1  0.57015000  0.96259000  0.96259000  1.0 0.1740604739
C  C7  1  0.58228000  0.88482000  0.88482000  1.0 0.1351685552
C  C8  1  0.51126000  0.92408000  0.92408000  1.0 -0.3305621677
C  C9  1  0.50467000  0.96259000  0.96259000  1.0 0.1740604739
C  C10  1  0.88482000  0.64808000  0.58228000  1.0 0.1351685552
C  C11  1  0.92408000  0.64058000  0.51126000  1.0 -0.3305621677
C  C12  1  0.96259000  0.57015000  0.50467000  1.0 0.1740604739
C  C13  1  0.58228000  0.64808000  0.88482000  1.0 0.1351685552
C  C14  1  0.51126000  0.64058000  0.92408000  1.0 -0.3305621677
C  C15  1  0.50467000  0.57015000  0.96259000  1.0 0.1740604739
C  C16  1  0.88482000  0.88482000  0.64808000  1.0 0.1344292043
C  C17  1  0.92408000  0.92408000  0.64058000  1.0 -0.3305621677
C  C18  1  0.96259000  0.96259000  0.57015000  1.0 0.1756814448
C  C19  1  0.88482000  0.88482000  0.58228000  1.0 0.1344292043
C  C20  1  0.92408000  0.92408000  0.51126000  1.0 -0.3305621677
C  C21  1  0.96259000  0.96259000  0.50467000  1.0 0.1740604739
C  C22  1  0.64808000  0.58228000  0.88482000  1.0 0.1351685552
C  C23  1  0.64058000  0.51126000  0.92408000  1.0 -0.3305621677
C  C24  1  0.57015000  0.50467000  0.96259000  1.0 0.1740604739
C  C25  1  0.64808000  0.88482000  0.58228000  1.0 0.1344292043
C  C26  1  0.64058000  0.92408000  0.51126000  1.0 -0.3305621677
C  C27  1  0.57015000  0.96259000  0.50467000  1.0 0.1740604739
C  C28  1  0.88482000  0.64808000  0.88482000  1.0 0.1351685552
C  C29  1  0.92408000  0.64058000  0.92408000  1.0 -0.3305621677
C  C30  1  0.96259000  0.57015000  0.96259000  1.0 0.1740604739
C  C31  1  0.88482000  0.58228000  0.88482000  1.0 0.1351685552
C  C32  1  0.92408000  0.51126000  0.92408000  1.0 -0.3305621677
C  C33  1  0.96259000  0.50467000  0.96259000  1.0 0.1740604739
C  C34  1  0.58228000  0.88482000  0.64808000  1.0 0.1351685552
C  C35  1  0.51126000  0.92408000  0.64058000  1.0 -0.3305621677
C  C36  1  0.50467000  0.96259000  0.57015000  1.0 0.1740604739
C  C37  1  0.11518000  0.11518000  0.35192000  1.0 0.1344292043
C  C38  1  0.07592000  0.07592000  0.35942000  1.0 -0.3305621677
C  C39  1  0.03741000  0.03741000  0.42985000  1.0 0.1740604739
C  C40  1  0.35192000  0.41772000  0.11518000  1.0 0.1344292043
C  C41  1  0.35942000  0.48874000  0.07592000  1.0 -0.3305621677
C  C42  1  0.42985000  0.49533000  0.03741000  1.0 0.1740604739
C  C43  1  0.41772000  0.35192000  0.11518000  1.0 0.1344292043
C  C44  1  0.48874000  0.35942000  0.07592000  1.0 -0.3305621677
C  C45  1  0.49533000  0.42985000  0.03741000  1.0 0.1740604739
C  C46  1  0.11518000  0.11518000  0.41772000  1.0 0.1344292043
C  C47  1  0.07592000  0.07592000  0.48874000  1.0 -0.3305621677
C  C48  1  0.03741000  0.03741000  0.49533000  1.0 0.1740604739
C  C49  1  0.41772000  0.11518000  0.11518000  1.0 0.1344292043
C  C50  1  0.48874000  0.07592000  0.07592000  1.0 -0.3305621677
C  C51  1  0.49533000  0.03741000  0.03741000  1.0 0.1740604739
C  C52  1  0.11518000  0.41772000  0.35192000  1.0 0.1344292043
C  C53  1  0.07592000  0.48874000  0.35942000  1.0 -0.3305621677
C  C54  1  0.03741000  0.49533000  0.42985000  1.0 0.1740604739
C  C55  1  0.11518000  0.35192000  0.41772000  1.0 0.1344292043
C  C56  1  0.07592000  0.35942000  0.48874000  1.0 -0.3305621677
C  C57  1  0.03741000  0.42985000  0.49533000  1.0 0.1740604739
C  C58  1  0.35192000  0.11518000  0.11518000  1.0 0.1344292043
C  C59  1  0.35942000  0.07592000  0.07592000  1.0 -0.3305621677
C  C60  1  0.42985000  0.03741000  0.03741000  1.0 0.1740604739
C  C61  1  0.35192000  0.11518000  0.41772000  1.0 0.1344292043
C  C62  1  0.35942000  0.07592000  0.48874000  1.0 -0.3305621677
C  C63  1  0.42985000  0.03741000  0.49533000  1.0 0.1740604739
C  C64  1  0.11518000  0.41772000  0.11518000  1.0 0.1344292043
C  C65  1  0.07592000  0.48874000  0.07592000  1.0 -0.3305621677
C  C66  1  0.03741000  0.49533000  0.03741000  1.0 0.1740604739
C  C67  1  0.11518000  0.35192000  0.11518000  1.0 0.1344292043
C  C68  1  0.07592000  0.35942000  0.07592000  1.0 -0.3305621677
C  C69  1  0.03741000  0.42985000  0.03741000  1.0 0.1740604739
C  C70  1  0.41772000  0.11518000  0.35192000  1.0 0.1351685552
C  C71  1  0.48874000  0.07592000  0.35942000  1.0 -0.3305621677
C  C72  1  0.49533000  0.03741000  0.42985000  1.0 0.1740604739
N  N1  1  0.84459000  0.60421000  0.70661000  1.0 -0.2835699292
N  N2  1  0.70661000  0.84459000  0.84459000  1.0 -0.2835699292
N  N3  1  0.60421000  0.84459000  0.84459000  1.0 -0.2835699292
N  N4  1  0.84459000  0.70661000  0.60421000  1.0 -0.2835699292
N  N5  1  0.60421000  0.70661000  0.84459000  1.0 -0.2835699292
N  N6  1  0.84459000  0.84459000  0.70661000  1.0 -0.2835699292
N  N7  1  0.84459000  0.84459000  0.60421000  1.0 -0.2835699292
N  N8  1  0.70661000  0.60421000  0.84459000  1.0 -0.2835699292
N  N9  1  0.70661000  0.84459000  0.60421000  1.0 -0.2835699292
N  N10  1  0.84459000  0.70661000  0.84459000  1.0 -0.2835699292
N  N11  1  0.84459000  0.60421000  0.84459000  1.0 -0.2835699292
N  N12  1  0.60421000  0.84459000  0.70661000  1.0 -0.2835699292
N  N13  1  0.15541000  0.15541000  0.29339000  1.0 -0.2835699292
N  N14  1  0.29339000  0.39579000  0.15541000  1.0 -0.2835699292
N  N15  1  0.39579000  0.29339000  0.15541000  1.0 -0.2835699292
N  N16  1  0.15541000  0.15541000  0.39579000  1.0 -0.2835699292
N  N17  1  0.39579000  0.15541000  0.15541000  1.0 -0.2835699292
N  N18  1  0.15541000  0.39579000  0.29339000  1.0 -0.2835699292
N  N19  1  0.15541000  0.29339000  0.39579000  1.0 -0.2835699292
N  N20  1  0.29339000  0.15541000  0.15541000  1.0 -0.2835699292
N  N21  1  0.29339000  0.15541000  0.39579000  1.0 -0.2835699292
N  N22  1  0.15541000  0.39579000  0.15541000  1.0 -0.2835699292
N  N23  1  0.15541000  0.29339000  0.15541000  1.0 -0.2835699292
N  N24  1  0.39579000  0.15541000  0.29339000  1.0 -0.2835699292
N  N25  1  0.82193000  0.67807000  0.67807000  1.0 -0.050912066
N  N26  1  0.67807000  0.82193000  0.82193000  1.0 -0.050912066
N  N27  1  0.67807000  0.67807000  0.82193000  1.0 -0.050912066
N  N28  1  0.82193000  0.82193000  0.67807000  1.0 -0.050912066
N  N29  1  0.67807000  0.82193000  0.67807000  1.0 -0.050912066
N  N30  1  0.82193000  0.67807000  0.82193000  1.0 -0.050912066
N  N31  1  0.17807000  0.17807000  0.32193000  1.0 -0.050912066
N  N32  1  0.32193000  0.32193000  0.17807000  1.0 -0.050912066
N  N33  1  0.32193000  0.17807000  0.17807000  1.0 -0.050912066
N  N34  1  0.17807000  0.32193000  0.32193000  1.0 -0.050912066
N  N35  1  0.32193000  0.17807000  0.32193000  1.0 -0.050912066
N  N36  1  0.17807000  0.32193000  0.17807000  1.0 -0.050912066
Cl  Cl1  1  0.85480000  0.43560000  0.85480000  1.0 -0.3733382239
Cl  Cl2  1  0.85480000  0.85480000  0.85480000  1.0 -0.3733382239
Cl  Cl3  1  0.43560000  0.85480000  0.85480000  1.0 -0.3733382239
Cl  Cl4  1  0.85480000  0.85480000  0.43560000  1.0 -0.3733382239
Cl  Cl5  1  0.14520000  0.14520000  0.14520000  1.0 -0.3733382239
Cl  Cl6  1  0.14520000  0.56440000  0.14520000  1.0 -0.3751766057
Cl  Cl7  1  0.56440000  0.14520000  0.14520000  1.0 -0.3733382239
Cl  Cl8  1  0.14520000  0.14520000  0.56440000  1.0 -0.3733382239
O  O1  1  0.00000000  0.43706000  0.56294000  1.0 -0.1887953178
O  O2  1  0.56294000  0.00000000  0.00000000  1.0 -0.1887953178
O  O3  1  0.43706000  0.00000000  0.00000000  1.0 -0.1887953178
O  O4  1  0.00000000  0.56294000  0.43706000  1.0 -0.1887953178
O  O5  1  0.43706000  0.56294000  0.00000000  1.0 -0.1887953178
O  O6  1  0.00000000  0.00000000  0.56294000  1.0 -0.1887953178
O  O7  1  0.00000000  0.00000000  0.43706000  1.0 -0.1887953178
O  O8  1  0.56294000  0.43706000  0.00000000  1.0 -0.1887953178
O  O9  1  0.56294000  0.00000000  0.43706000  1.0 -0.1887953178
O  O10  1  0.00000000  0.56294000  0.00000000  1.0 -0.1887953178
O  O11  1  0.00000000  0.43706000  0.00000000  1.0 -0.1887953178
O  O12  1  0.43706000  0.00000000  0.56294000  1.0 -0.1887953178
