# DDEC6 charges by PACMAN v1.1 (https://github.com/mtap-research/PACMAN-charge/)
data_YAFXEM03_FSR_pacman
_symmetry_space_group_name_H-M   'P 1'
_cell_length_a   22.01900000
_cell_length_b   22.01900000
_cell_length_c   22.01900000
_cell_angle_alpha   60.00000000
_cell_angle_beta   60.00000000
_cell_angle_gamma   60.00000000
_symmetry_Int_Tables_number   1
_chemical_formula_structural   Zn5Cu4H20C36N18(Cl2O3)2
_chemical_formula_sum   'Zn10 Cu8 H40 C72 N36 Cl8 O12'
_cell_volume   7548.79752033
_cell_formula_units_Z   2
loop_
 _symmetry_equiv_pos_site_id
 _symmetry_equiv_pos_as_xyz
  1  'x, y, z'
loop_
 _atom_site_type_symbol
 _atom_site_label
 _atom_site_symmetry_multiplicity
 _atom_site_fract_x
 _atom_site_fract_y
 _atom_site_fract_z
 _atom_site_occupancy
 _atom_site_charge
Zn  Zn1  1  0.75000000  0.75000000  0.75000000  1.0 0.2791339099
Zn  Zn2  1  0.25000000  0.25000000  0.25000000  1.0 0.2791339099
Zn  Zn3  1  0.81520000  0.55440000  0.81520000  1.0 0.6197267338
Zn  Zn4  1  0.81520000  0.81520000  0.81520000  1.0 0.6197267338
Zn  Zn5  1  0.55440000  0.81520000  0.81520000  1.0 0.6197267338
Zn  Zn6  1  0.81520000  0.81520000  0.55440000  1.0 0.6197267338
Zn  Zn7  1  0.18480000  0.18480000  0.18480000  1.0 0.6197267338
Zn  Zn8  1  0.18480000  0.44560000  0.18480000  1.0 0.6197267338
Zn  Zn9  1  0.44560000  0.18480000  0.18480000  1.0 0.6197267338
Zn  Zn10  1  0.18480000  0.18480000  0.44560000  1.0 0.6197267338
Cu  Cu1  1  0.81700000  0.54900000  0.81700000  1.0 0.3102958689
Cu  Cu2  1  0.81700000  0.81700000  0.81700000  1.0 0.3102958689
Cu  Cu3  1  0.54900000  0.81700000  0.81700000  1.0 0.3102958689
Cu  Cu4  1  0.81700000  0.81700000  0.54900000  1.0 0.3151576757
Cu  Cu5  1  0.18300000  0.18300000  0.18300000  1.0 0.3102958689
Cu  Cu6  1  0.18300000  0.45100000  0.18300000  1.0 0.3102958689
Cu  Cu7  1  0.45100000  0.18300000  0.18300000  1.0 0.3151576757
Cu  Cu8  1  0.18300000  0.18300000  0.45100000  1.0 0.3102958689
H  H1  1  0.92439000  0.46667000  0.68455000  1.0 0.129839161
H  H2  1  0.68455000  0.92439000  0.92439000  1.0 0.129839161
H  H3  1  0.46667000  0.92439000  0.92439000  1.0 0.129839161
H  H4  1  0.92439000  0.68455000  0.46667000  1.0 0.129839161
H  H5  1  0.46667000  0.68455000  0.92439000  1.0 0.129839161
H  H6  1  0.92439000  0.92439000  0.68455000  1.0 0.129839161
H  H7  1  0.92439000  0.92439000  0.46667000  1.0 0.129839161
H  H8  1  0.68455000  0.46667000  0.92439000  1.0 0.129839161
H  H9  1  0.68455000  0.92439000  0.46667000  1.0 0.129839161
H  H10  1  0.92439000  0.68455000  0.92439000  1.0 0.129839161
H  H11  1  0.92439000  0.46667000  0.92439000  1.0 0.129839161
H  H12  1  0.46667000  0.92439000  0.68455000  1.0 0.129839161
H  H13  1  0.07561000  0.07561000  0.31545000  1.0 0.129839161
H  H14  1  0.31545000  0.53333000  0.07561000  1.0 0.129839161
H  H15  1  0.53333000  0.31545000  0.07561000  1.0 0.129839161
H  H16  1  0.07561000  0.07561000  0.53333000  1.0 0.129839161
H  H17  1  0.53333000  0.07561000  0.07561000  1.0 0.129839161
H  H18  1  0.07561000  0.53333000  0.31545000  1.0 0.129839161
H  H19  1  0.07561000  0.31545000  0.53333000  1.0 0.129839161
H  H20  1  0.31545000  0.07561000  0.07561000  1.0 0.129839161
H  H21  1  0.31545000  0.07561000  0.53333000  1.0 0.129839161
H  H22  1  0.07561000  0.53333000  0.07561000  1.0 0.129839161
H  H23  1  0.07561000  0.31545000  0.07561000  1.0 0.129839161
H  H24  1  0.53333000  0.07561000  0.31545000  1.0 0.129839161
H  H25  1  0.84490000  0.46530000  0.84490000  1.0 -0.0014694397
H  H26  1  0.87293000  0.38121000  0.87293000  1.0 0.2097938038
H  H27  1  0.84490000  0.84490000  0.84490000  1.0 -0.0014694397
H  H28  1  0.87293000  0.87293000  0.87293000  1.0 0.2097938038
H  H29  1  0.46530000  0.84490000  0.84490000  1.0 -0.0014694397
H  H30  1  0.38121000  0.87293000  0.87293000  1.0 0.2097938038
H  H31  1  0.84490000  0.84490000  0.46530000  1.0 2.9515e-05
H  H32  1  0.87293000  0.87293000  0.38121000  1.0 0.2097938038
H  H33  1  0.15510000  0.15510000  0.15510000  1.0 2.9515e-05
H  H34  1  0.12707000  0.12707000  0.12707000  1.0 0.2097938038
H  H35  1  0.15510000  0.53470000  0.15510000  1.0 -0.0014694397
H  H36  1  0.12707000  0.61879000  0.12707000  1.0 0.2097938038
H  H37  1  0.53470000  0.15510000  0.15510000  1.0 2.9515e-05
H  H38  1  0.61879000  0.12707000  0.12707000  1.0 0.2097938038
H  H39  1  0.15510000  0.15510000  0.53470000  1.0 -0.0014694397
H  H40  1  0.12707000  0.12707000  0.61879000  1.0 0.2097938038
C  C1  1  0.88526000  0.58158000  0.64790000  1.0 0.1433349937
C  C2  1  0.92420000  0.51114000  0.64046000  1.0 -0.314529419
C  C3  1  0.96229000  0.50461000  0.57081000  1.0 0.165919196
C  C4  1  0.64790000  0.88526000  0.88526000  1.0 0.1433349937
C  C5  1  0.64046000  0.92420000  0.92420000  1.0 -0.3159978939
C  C6  1  0.57081000  0.96229000  0.96229000  1.0 0.165919196
C  C7  1  0.58158000  0.88526000  0.88526000  1.0 0.1433349937
C  C8  1  0.51114000  0.92420000  0.92420000  1.0 -0.3159978939
C  C9  1  0.50461000  0.96229000  0.96229000  1.0 0.165919196
C  C10  1  0.88526000  0.64790000  0.58158000  1.0 0.1433349937
C  C11  1  0.92420000  0.64046000  0.51114000  1.0 -0.3159978939
C  C12  1  0.96229000  0.57081000  0.50461000  1.0 0.165919196
C  C13  1  0.58158000  0.64790000  0.88526000  1.0 0.1433349937
C  C14  1  0.51114000  0.64046000  0.92420000  1.0 -0.314529419
C  C15  1  0.50461000  0.57081000  0.96229000  1.0 0.165919196
C  C16  1  0.88526000  0.88526000  0.64790000  1.0 0.1433349937
C  C17  1  0.92420000  0.92420000  0.64046000  1.0 -0.3159978939
C  C18  1  0.96229000  0.96229000  0.57081000  1.0 0.165919196
C  C19  1  0.88526000  0.88526000  0.58158000  1.0 0.1433349937
C  C20  1  0.92420000  0.92420000  0.51114000  1.0 -0.3159978939
C  C21  1  0.96229000  0.96229000  0.50461000  1.0 0.165919196
C  C22  1  0.64790000  0.58158000  0.88526000  1.0 0.1433349937
C  C23  1  0.64046000  0.51114000  0.92420000  1.0 -0.314529419
C  C24  1  0.57081000  0.50461000  0.96229000  1.0 0.165919196
C  C25  1  0.64790000  0.88526000  0.58158000  1.0 0.1433349937
C  C26  1  0.64046000  0.92420000  0.51114000  1.0 -0.3159978939
C  C27  1  0.57081000  0.96229000  0.50461000  1.0 0.165919196
C  C28  1  0.88526000  0.64790000  0.88526000  1.0 0.1433349937
C  C29  1  0.92420000  0.64046000  0.92420000  1.0 -0.314529419
C  C30  1  0.96229000  0.57081000  0.96229000  1.0 0.165919196
C  C31  1  0.88526000  0.58158000  0.88526000  1.0 0.1433349937
C  C32  1  0.92420000  0.51114000  0.92420000  1.0 -0.3159978939
C  C33  1  0.96229000  0.50461000  0.96229000  1.0 0.1645042687
C  C34  1  0.58158000  0.88526000  0.64790000  1.0 0.1433349937
C  C35  1  0.51114000  0.92420000  0.64046000  1.0 -0.3159978939
C  C36  1  0.50461000  0.96229000  0.57081000  1.0 0.1645042687
C  C37  1  0.11474000  0.11474000  0.35210000  1.0 0.1433349937
C  C38  1  0.07580000  0.07580000  0.35954000  1.0 -0.314529419
C  C39  1  0.03771000  0.03771000  0.42919000  1.0 0.165919196
C  C40  1  0.35210000  0.41842000  0.11474000  1.0 0.1433349937
C  C41  1  0.35954000  0.48886000  0.07580000  1.0 -0.3159978939
C  C42  1  0.42919000  0.49539000  0.03771000  1.0 0.1645042687
C  C43  1  0.41842000  0.35210000  0.11474000  1.0 0.1433349937
C  C44  1  0.48886000  0.35954000  0.07580000  1.0 -0.3159978939
C  C45  1  0.49539000  0.42919000  0.03771000  1.0 0.165919196
C  C46  1  0.11474000  0.11474000  0.41842000  1.0 0.1433349937
C  C47  1  0.07580000  0.07580000  0.48886000  1.0 -0.314529419
C  C48  1  0.03771000  0.03771000  0.49539000  1.0 0.1645042687
C  C49  1  0.41842000  0.11474000  0.11474000  1.0 0.1433349937
C  C50  1  0.48886000  0.07580000  0.07580000  1.0 -0.314529419
C  C51  1  0.49539000  0.03771000  0.03771000  1.0 0.165919196
C  C52  1  0.11474000  0.41842000  0.35210000  1.0 0.1433349937
C  C53  1  0.07580000  0.48886000  0.35954000  1.0 -0.3159978939
C  C54  1  0.03771000  0.49539000  0.42919000  1.0 0.165919196
C  C55  1  0.11474000  0.35210000  0.41842000  1.0 0.1433349937
C  C56  1  0.07580000  0.35954000  0.48886000  1.0 -0.3159978939
C  C57  1  0.03771000  0.42919000  0.49539000  1.0 0.165919196
C  C58  1  0.35210000  0.11474000  0.11474000  1.0 0.1433349937
C  C59  1  0.35954000  0.07580000  0.07580000  1.0 -0.314529419
C  C60  1  0.42919000  0.03771000  0.03771000  1.0 0.1645042687
C  C61  1  0.35210000  0.11474000  0.41842000  1.0 0.1433349937
C  C62  1  0.35954000  0.07580000  0.48886000  1.0 -0.314529419
C  C63  1  0.42919000  0.03771000  0.49539000  1.0 0.165919196
C  C64  1  0.11474000  0.41842000  0.11474000  1.0 0.1433349937
C  C65  1  0.07580000  0.48886000  0.07580000  1.0 -0.3159978939
C  C66  1  0.03771000  0.49539000  0.03771000  1.0 0.1645042687
C  C67  1  0.11474000  0.35210000  0.11474000  1.0 0.1433349937
C  C68  1  0.07580000  0.35954000  0.07580000  1.0 -0.3159978939
C  C69  1  0.03771000  0.42919000  0.03771000  1.0 0.165919196
C  C70  1  0.41842000  0.11474000  0.35210000  1.0 0.1433349937
C  C71  1  0.48886000  0.07580000  0.35954000  1.0 -0.314529419
C  C72  1  0.49539000  0.03771000  0.42919000  1.0 0.165919196
N  N1  1  0.84432000  0.60346000  0.70790000  1.0 -0.2976021057
N  N2  1  0.70790000  0.84432000  0.84432000  1.0 -0.2976021057
N  N3  1  0.60346000  0.84432000  0.84432000  1.0 -0.2976021057
N  N4  1  0.84432000  0.70790000  0.60346000  1.0 -0.2976021057
N  N5  1  0.60346000  0.70790000  0.84432000  1.0 -0.2976021057
N  N6  1  0.84432000  0.84432000  0.70790000  1.0 -0.2976021057
N  N7  1  0.84432000  0.84432000  0.60346000  1.0 -0.2976021057
N  N8  1  0.70790000  0.60346000  0.84432000  1.0 -0.2976021057
N  N9  1  0.70790000  0.84432000  0.60346000  1.0 -0.2976021057
N  N10  1  0.84432000  0.70790000  0.84432000  1.0 -0.2976021057
N  N11  1  0.84432000  0.60346000  0.84432000  1.0 -0.2976021057
N  N12  1  0.60346000  0.84432000  0.70790000  1.0 -0.2976021057
N  N13  1  0.15568000  0.15568000  0.29210000  1.0 -0.2976021057
N  N14  1  0.29210000  0.39654000  0.15568000  1.0 -0.2976021057
N  N15  1  0.39654000  0.29210000  0.15568000  1.0 -0.2976021057
N  N16  1  0.15568000  0.15568000  0.39654000  1.0 -0.2976021057
N  N17  1  0.39654000  0.15568000  0.15568000  1.0 -0.2976021057
N  N18  1  0.15568000  0.39654000  0.29210000  1.0 -0.2976021057
N  N19  1  0.15568000  0.29210000  0.39654000  1.0 -0.2976021057
N  N20  1  0.29210000  0.15568000  0.15568000  1.0 -0.2976021057
N  N21  1  0.29210000  0.15568000  0.39654000  1.0 -0.2976021057
N  N22  1  0.15568000  0.39654000  0.15568000  1.0 -0.2976021057
N  N23  1  0.15568000  0.29210000  0.15568000  1.0 -0.2976021057
N  N24  1  0.39654000  0.15568000  0.29210000  1.0 -0.2976021057
N  N25  1  0.82279000  0.67721000  0.67721000  1.0 -0.0245597577
N  N26  1  0.67721000  0.82279000  0.82279000  1.0 -0.0259820917
N  N27  1  0.67721000  0.67721000  0.82279000  1.0 -0.0245597577
N  N28  1  0.82279000  0.82279000  0.67721000  1.0 -0.0259820917
N  N29  1  0.67721000  0.82279000  0.67721000  1.0 -0.0245597577
N  N30  1  0.82279000  0.67721000  0.82279000  1.0 -0.0245597577
N  N31  1  0.17721000  0.17721000  0.32279000  1.0 -0.0259820917
N  N32  1  0.32279000  0.32279000  0.17721000  1.0 -0.0259820917
N  N33  1  0.32279000  0.17721000  0.17721000  1.0 -0.0259820917
N  N34  1  0.17721000  0.32279000  0.32279000  1.0 -0.0259820917
N  N35  1  0.32279000  0.17721000  0.32279000  1.0 -0.0259820917
N  N36  1  0.17721000  0.32279000  0.17721000  1.0 -0.0259820917
Cl  Cl1  1  0.85283000  0.44151000  0.85283000  1.0 -0.3783240329
Cl  Cl2  1  0.85283000  0.85283000  0.85283000  1.0 -0.3742880435
Cl  Cl3  1  0.44151000  0.85283000  0.85283000  1.0 -0.3742880435
Cl  Cl4  1  0.85283000  0.85283000  0.44151000  1.0 -0.3783240329
Cl  Cl5  1  0.14717000  0.14717000  0.14717000  1.0 -0.3783240329
Cl  Cl6  1  0.14717000  0.55849000  0.14717000  1.0 -0.3783240329
Cl  Cl7  1  0.55849000  0.14717000  0.14717000  1.0 -0.3783240329
Cl  Cl8  1  0.14717000  0.14717000  0.55849000  1.0 -0.3783240329
O  O1  1  0.00000000  0.43642000  0.56358000  1.0 -0.1810569662
O  O2  1  0.56358000  0.00000000  0.00000000  1.0 -0.1810569662
O  O3  1  0.43642000  0.00000000  0.00000000  1.0 -0.1810569662
O  O4  1  0.00000000  0.56358000  0.43642000  1.0 -0.1810569662
O  O5  1  0.43642000  0.56358000  0.00000000  1.0 -0.1810569662
O  O6  1  0.00000000  0.00000000  0.56358000  1.0 -0.1810569662
O  O7  1  0.00000000  0.00000000  0.43642000  1.0 -0.1810569662
O  O8  1  0.56358000  0.43642000  0.00000000  1.0 -0.1810569662
O  O9  1  0.56358000  0.00000000  0.43642000  1.0 -0.1810569662
O  O10  1  0.00000000  0.56358000  0.00000000  1.0 -0.1810569662
O  O11  1  0.00000000  0.43642000  0.00000000  1.0 -0.1810569662
O  O12  1  0.43642000  0.00000000  0.56358000  1.0 -0.1810569662
