# DDEC6 charges by PACMAN v1.1 (https://github.com/mtap-research/PACMAN-charge/)
data_YAGHAS_FSR_pacman
_symmetry_space_group_name_H-M   'P 1'
_cell_length_a   22.80860000
_cell_length_b   22.80860000
_cell_length_c   9.14370000
_cell_angle_alpha   80.10470000
_cell_angle_beta   99.89530000
_cell_angle_gamma   122.93600000
_symmetry_Int_Tables_number   1
_chemical_formula_structural   K2H80Pb2C67(NO17)2
_chemical_formula_sum   'K4 H160 Pb4 C134 N4 O68'
_cell_volume   3915.19934510
_cell_formula_units_Z   2
loop_
 _symmetry_equiv_pos_site_id
 _symmetry_equiv_pos_as_xyz
  1  'x, y, z'
loop_
 _atom_site_type_symbol
 _atom_site_label
 _atom_site_symmetry_multiplicity
 _atom_site_fract_x
 _atom_site_fract_y
 _atom_site_fract_z
 _atom_site_occupancy
 _atom_site_charge
K  K1  1  0.83875000  0.42065000  0.15150000  1.0 0.80288143
K  K2  1  0.42065000  0.83875000  0.34850000  1.0 0.80288143
K  K3  1  0.16125000  0.57935000  0.84850000  1.0 0.80288143
K  K4  1  0.57935000  0.16125000  0.65150000  1.0 0.80288143
H  H1  1  0.96300000  0.38280000  0.18160000  1.0 0.2978396892
H  H2  1  0.38280000  0.96300000  0.31840000  1.0 0.2978396892
H  H3  1  0.03700000  0.61720000  0.81840000  1.0 0.2978396892
H  H4  1  0.61720000  0.03700000  0.68160000  1.0 0.2978396892
H  H5  1  0.92880000  0.36220000  0.04190000  1.0 0.3071334168
H  H6  1  0.36220000  0.92880000  0.45810000  1.0 0.3071334168
H  H7  1  0.07120000  0.63780000  0.95810000  1.0 0.3071334168
H  H8  1  0.63780000  0.07120000  0.54190000  1.0 0.3071334168
H  H9  1  0.97620000  0.57680000  0.98500000  1.0 0.2929081424
H  H10  1  0.57680000  0.97620000  0.51500000  1.0 0.2929081424
H  H11  1  0.02380000  0.42320000  0.01500000  1.0 0.2929081424
H  H12  1  0.42320000  0.02380000  0.48500000  1.0 0.2929081424
H  H13  1  0.91800000  0.57880000  0.91620000  1.0 0.2978396892
H  H14  1  0.57880000  0.91800000  0.58380000  1.0 0.2978396892
H  H15  1  0.08200000  0.42120000  0.08380000  1.0 0.2978396892
H  H16  1  0.42120000  0.08200000  0.41620000  1.0 0.2978396892
H  H17  1  0.74530000  0.55210000  0.68040000  1.0 0.1196997569
H  H18  1  0.55210000  0.74530000  0.81960000  1.0 0.1196997569
H  H19  1  0.25470000  0.44790000  0.31960000  1.0 0.1196997569
H  H20  1  0.44790000  0.25470000  0.18040000  1.0 0.1196997569
H  H21  1  0.76200000  0.51700000  0.57380000  1.0 0.0971401885
H  H22  1  0.51700000  0.76200000  0.92620000  1.0 0.0971401885
H  H23  1  0.23800000  0.48300000  0.42620000  1.0 0.0971401885
H  H24  1  0.48300000  0.23800000  0.07380000  1.0 0.0971401885
H  H25  1  0.79470000  0.62490000  0.46010000  1.0 0.1196997569
H  H26  1  0.62490000  0.79470000  0.03990000  1.0 0.1196997569
H  H27  1  0.20530000  0.37510000  0.53990000  1.0 0.1196997569
H  H28  1  0.37510000  0.20530000  0.96010000  1.0 0.1196997569
H  H29  1  0.85860000  0.72720000  0.31260000  1.0 0.1125234165
H  H30  1  0.72720000  0.85860000  0.18740000  1.0 0.1125234165
H  H31  1  0.14140000  0.27280000  0.68740000  1.0 0.1125234165
H  H32  1  0.27280000  0.14140000  0.81260000  1.0 0.1125234165
H  H33  1  0.03000000  0.77880000  0.58870000  1.0 0.1125234165
H  H34  1  0.77880000  0.03000000  0.91130000  1.0 0.1125234165
H  H35  1  0.97000000  0.22120000  0.41130000  1.0 0.1125234165
H  H36  1  0.22120000  0.97000000  0.08870000  1.0 0.1125234165
H  H37  1  0.96890000  0.67610000  0.73760000  1.0 0.1196997569
H  H38  1  0.67610000  0.96890000  0.76240000  1.0 0.1196997569
H  H39  1  0.03110000  0.32390000  0.26240000  1.0 0.1196997569
H  H40  1  0.32390000  0.03110000  0.23760000  1.0 0.1196997569
H  H41  1  0.21770000  0.74890000  0.30030000  1.0 0.1196997569
H  H42  1  0.74890000  0.21770000  0.19970000  1.0 0.1196997569
H  H43  1  0.78230000  0.25110000  0.69970000  1.0 0.1196997569
H  H44  1  0.25110000  0.78230000  0.80030000  1.0 0.1196997569
H  H45  1  0.25580000  0.81180000  0.17860000  1.0 0.1196997569
H  H46  1  0.81180000  0.25580000  0.32140000  1.0 0.1196997569
H  H47  1  0.74420000  0.18820000  0.82140000  1.0 0.1196997569
H  H48  1  0.18820000  0.74420000  0.67860000  1.0 0.1196997569
H  H49  1  0.20040000  0.84160000  0.30480000  1.0 0.1319605625
H  H50  1  0.84160000  0.20040000  0.19520000  1.0 0.1319605625
H  H51  1  0.79960000  0.15840000  0.69520000  1.0 0.1319605625
H  H52  1  0.15840000  0.79960000  0.80480000  1.0 0.1319605625
H  H53  1  0.13480000  0.87900000  0.37820000  1.0 0.1125234165
H  H54  1  0.87900000  0.13480000  0.12180000  1.0 0.1125234165
H  H55  1  0.86520000  0.12100000  0.62180000  1.0 0.1125234165
H  H56  1  0.12100000  0.86520000  0.87820000  1.0 0.1125234165
H  H57  1  0.96750000  0.74670000  0.12820000  1.0 0.1125234165
H  H58  1  0.74670000  0.96750000  0.37180000  1.0 0.1125234165
H  H59  1  0.03250000  0.25330000  0.87180000  1.0 0.1125234165
H  H60  1  0.25330000  0.03250000  0.62820000  1.0 0.1125234165
H  H61  1  0.03150000  0.70950000  0.04670000  1.0 0.1196997569
H  H62  1  0.70950000  0.03150000  0.45330000  1.0 0.1196997569
H  H63  1  0.96850000  0.29050000  0.95330000  1.0 0.1196997569
H  H64  1  0.29050000  0.96850000  0.54670000  1.0 0.1196997569
H  H65  1  0.91960000  0.85180000  0.24730000  1.0 0.1319605625
H  H66  1  0.85180000  0.91960000  0.25270000  1.0 0.1319605625
H  H67  1  0.08040000  0.14820000  0.75270000  1.0 0.1319605625
H  H68  1  0.14820000  0.08040000  0.74730000  1.0 0.1319605625
H  H69  1  0.98370000  0.89170000  0.15130000  1.0 0.1401534908
H  H70  1  0.89170000  0.98370000  0.34870000  1.0 0.1401534908
H  H71  1  0.01630000  0.10830000  0.84870000  1.0 0.1401534908
H  H72  1  0.10830000  0.01630000  0.65130000  1.0 0.1401534908
H  H73  1  0.92930000  0.81130000  0.14090000  1.0 0.1125234165
H  H74  1  0.81130000  0.92930000  0.35910000  1.0 0.1125234165
H  H75  1  0.07070000  0.18870000  0.85910000  1.0 0.1125234165
H  H76  1  0.18870000  0.07070000  0.64090000  1.0 0.1125234165
H  H77  1  0.06440000  0.88520000  0.51020000  1.0 0.1196997569
H  H78  1  0.88520000  0.06440000  0.98980000  1.0 0.1196997569
H  H79  1  0.93560000  0.11480000  0.48980000  1.0 0.1196997569
H  H80  1  0.11480000  0.93560000  0.01020000  1.0 0.1196997569
H  H81  1  0.07470000  0.93430000  0.36160000  1.0 0.1319605625
H  H82  1  0.93430000  0.07470000  0.13840000  1.0 0.1319605625
H  H83  1  0.92530000  0.06570000  0.63840000  1.0 0.1319605625
H  H84  1  0.06570000  0.92530000  0.86160000  1.0 0.1319605625
H  H85  1  0.01030000  0.90790000  0.45050000  1.0 0.1401534908
H  H86  1  0.90790000  0.01030000  0.04950000  1.0 0.1401534908
H  H87  1  0.98970000  0.09210000  0.54950000  1.0 0.1401534908
H  H88  1  0.09210000  0.98970000  0.95050000  1.0 0.1401534908
H  H89  1  0.44190000  0.18750000  0.67690000  1.0 0.0779519706
H  H90  1  0.18750000  0.44190000  0.82310000  1.0 0.0779519706
H  H91  1  0.55810000  0.81250000  0.32310000  1.0 0.0779519706
H  H92  1  0.81250000  0.55810000  0.17690000  1.0 0.0779519706
H  H93  1  0.47770000  0.25070000  0.55480000  1.0 0.1125234165
H  H94  1  0.25070000  0.47770000  0.94520000  1.0 0.1125234165
H  H95  1  0.52230000  0.74930000  0.44520000  1.0 0.1125234165
H  H96  1  0.74930000  0.52230000  0.05480000  1.0 0.1125234165
H  H97  1  0.36250000  0.15690000  0.46070000  1.0 0.1196997569
H  H98  1  0.15690000  0.36250000  0.03930000  1.0 0.1196997569
H  H99  1  0.63750000  0.84310000  0.53930000  1.0 0.1196997569
H  H100  1  0.84310000  0.63750000  0.96070000  1.0 0.1196997569
H  H101  1  0.25900000  0.12160000  0.30450000  1.0 0.1196997569
H  H102  1  0.12160000  0.25900000  0.19550000  1.0 0.1196997569
H  H103  1  0.74100000  0.87840000  0.69550000  1.0 0.1125234165
H  H104  1  0.87840000  0.74100000  0.80450000  1.0 0.1125234165
H  H105  1  0.23440000  0.26180000  0.44890000  1.0 0.1125234165
H  H106  1  0.26180000  0.23440000  0.05110000  1.0 0.1125234165
H  H107  1  0.76560000  0.73820000  0.55110000  1.0 0.1125234165
H  H108  1  0.73820000  0.76560000  0.94890000  1.0 0.1125234165
H  H109  1  0.32980000  0.28960000  0.62320000  1.0 0.1401534908
H  H110  1  0.28960000  0.32980000  0.87680000  1.0 0.1401534908
H  H111  1  0.67020000  0.71040000  0.37680000  1.0 0.1401534908
H  H112  1  0.71040000  0.67020000  0.12320000  1.0 0.1401534908
H  H113  1  0.18910000  0.12250000  0.10840000  1.0 0.1125234165
H  H114  1  0.12250000  0.18910000  0.39160000  1.0 0.1125234165
H  H115  1  0.81090000  0.87750000  0.89160000  1.0 0.1125234165
H  H116  1  0.87750000  0.81090000  0.60840000  1.0 0.1125234165
H  H117  1  0.13650000  0.06930000  0.22500000  1.0 0.1319605625
H  H118  1  0.06930000  0.13650000  0.27500000  1.0 0.1319605625
H  H119  1  0.86350000  0.93070000  0.77500000  1.0 0.1319605625
H  H120  1  0.93070000  0.86350000  0.72500000  1.0 0.1319605625
H  H121  1  0.11150000  0.10450000  0.08740000  1.0 0.1401534908
H  H122  1  0.10450000  0.11150000  0.41260000  1.0 0.1401534908
H  H123  1  0.88850000  0.89550000  0.91260000  1.0 0.1401534908
H  H124  1  0.89550000  0.88850000  0.58740000  1.0 0.1401534908
H  H125  1  0.94730000  0.58590000  0.45450000  1.0 0.1125234165
H  H126  1  0.58590000  0.94730000  0.04550000  1.0 0.1125234165
H  H127  1  0.05270000  0.41410000  0.54550000  1.0 0.1125234165
H  H128  1  0.41410000  0.05270000  0.95450000  1.0 0.1125234165
H  H129  1  0.07900000  0.60460000  0.21810000  1.0 0.1401534908
H  H130  1  0.60460000  0.07900000  0.28190000  1.0 0.1401534908
H  H131  1  0.92100000  0.39540000  0.78190000  1.0 0.1401534908
H  H132  1  0.39540000  0.92100000  0.71810000  1.0 0.1401534908
H  H133  1  0.08660000  0.55440000  0.34920000  1.0 0.1401534908
H  H134  1  0.55440000  0.08660000  0.15080000  1.0 0.1401534908
H  H135  1  0.91340000  0.44560000  0.65080000  1.0 0.1401534908
H  H136  1  0.44560000  0.91340000  0.84920000  1.0 0.1401534908
H  H137  1  0.01530000  0.52810000  0.24930000  1.0 0.1401534908
H  H138  1  0.52810000  0.01530000  0.25070000  1.0 0.1401534908
H  H139  1  0.98470000  0.47190000  0.75070000  1.0 0.1401534908
H  H140  1  0.47190000  0.98470000  0.74930000  1.0 0.1401534908
H  H141  1  0.06250000  0.63270000  0.59090000  1.0 0.1319605625
H  H142  1  0.63270000  0.06250000  0.90910000  1.0 0.1319605625
H  H143  1  0.93750000  0.36730000  0.40910000  1.0 0.1319605625
H  H144  1  0.36730000  0.93750000  0.09090000  1.0 0.1319605625
H  H145  1  0.12210000  0.63370000  0.52460000  1.0 0.1319605625
H  H146  1  0.63370000  0.12210000  0.97540000  1.0 0.1319605625
H  H147  1  0.87790000  0.36630000  0.47540000  1.0 0.1319605625
H  H148  1  0.36630000  0.87790000  0.02460000  1.0 0.1319605625
H  H149  1  0.10040000  0.68820000  0.45870000  1.0 0.1401534908
H  H150  1  0.68820000  0.10040000  0.04130000  1.0 0.1401534908
H  H151  1  0.89960000  0.31180000  0.54130000  1.0 0.1401534908
H  H152  1  0.31180000  0.89960000  0.95870000  1.0 0.1401534908
H  H153  1  0.41320000  0.15260000  0.71250000  1.0 0.0971401885
H  H154  1  0.15260000  0.41320000  0.78750000  1.0 0.0971401885
H  H155  1  0.58680000  0.84740000  0.28750000  1.0 0.0971401885
H  H156  1  0.84740000  0.58680000  0.21250000  1.0 0.0971401885
H  H157  1  0.45690000  0.18290000  0.57440000  1.0 0.0698370814
H  H158  1  0.18290000  0.45690000  0.92560000  1.0 0.0698370814
H  H159  1  0.54310000  0.81710000  0.42560000  1.0 0.0698370814
H  H160  1  0.81710000  0.54310000  0.07440000  1.0 0.0698370814
Pb  Pb1  1  0.66121000  0.32207000  0.93757000  1.0 0.7907029196
Pb  Pb2  1  0.32207000  0.66121000  0.56243000  1.0 0.7907029196
Pb  Pb3  1  0.33879000  0.67793000  0.06243000  1.0 0.7907029196
Pb  Pb4  1  0.67793000  0.33879000  0.43757000  1.0 0.7907029196
C  C1  1  0.74520000  0.46520000  0.78200000  1.0 0.461831133
C  C2  1  0.46520000  0.74520000  0.71800000  1.0 0.461831133
C  C3  1  0.25480000  0.53480000  0.21800000  1.0 0.461831133
C  C4  1  0.53480000  0.25480000  0.28200000  1.0 0.461831133
C  C5  1  0.77070000  0.52970000  0.67460000  1.0 -0.242087324
C  C6  1  0.52970000  0.77070000  0.82540000  1.0 -0.242087324
C  C7  1  0.22930000  0.47030000  0.32540000  1.0 -0.242087324
C  C8  1  0.47030000  0.22930000  0.17460000  1.0 -0.242087324
C  C9  1  0.87610000  0.63990000  0.61210000  1.0 0.2207290463
C  C10  1  0.63990000  0.87610000  0.88790000  1.0 0.2253925606
C  C11  1  0.12390000  0.36010000  0.38790000  1.0 0.2207290463
C  C12  1  0.36010000  0.12390000  0.11210000  1.0 0.2207290463
C  C13  1  0.84230000  0.65530000  0.48600000  1.0 -0.2218644665
C  C14  1  0.65530000  0.84230000  0.01400000  1.0 -0.2218644665
C  C15  1  0.15770000  0.34470000  0.51400000  1.0 -0.2218644665
C  C16  1  0.34470000  0.15770000  0.98600000  1.0 -0.2218644665
C  C17  1  0.88130000  0.71750000  0.39880000  1.0 -0.1600675032
C  C18  1  0.71750000  0.88130000  0.10120000  1.0 -0.1600675032
C  C19  1  0.11870000  0.28250000  0.60120000  1.0 -0.1600675032
C  C20  1  0.28250000  0.11870000  0.89880000  1.0 -0.1600675032
C  C21  1  0.95200000  0.76640000  0.43130000  1.0 0.0423761297
C  C22  1  0.76640000  0.95200000  0.06870000  1.0 0.0423761297
C  C23  1  0.04800000  0.23360000  0.56870000  1.0 0.0423761297
C  C24  1  0.23360000  0.04800000  0.93130000  1.0 0.0423761297
C  C25  1  0.98270000  0.74810000  0.56110000  1.0 -0.1335570709
C  C26  1  0.74810000  0.98270000  0.93890000  1.0 -0.1335570709
C  C27  1  0.01730000  0.25190000  0.43890000  1.0 -0.1335570709
C  C28  1  0.25190000  0.01730000  0.06110000  1.0 -0.1335570709
C  C29  1  0.94640000  0.68620000  0.65170000  1.0 -0.228469544
C  C30  1  0.68620000  0.94640000  0.84830000  1.0 -0.228469544
C  C31  1  0.05360000  0.31380000  0.34830000  1.0 -0.228469544
C  C32  1  0.31380000  0.05360000  0.15170000  1.0 -0.228469544
C  C33  1  0.24610000  0.72170000  0.13470000  1.0 0.5831267639
C  C34  1  0.72170000  0.24610000  0.36530000  1.0 0.5831267639
C  C35  1  0.75390000  0.27830000  0.86530000  1.0 0.5831267639
C  C36  1  0.27830000  0.75390000  0.63470000  1.0 0.5831267639
C  C37  1  0.22200000  0.76180000  0.19420000  1.0 -0.1766692967
C  C38  1  0.76180000  0.22200000  0.30580000  1.0 -0.1766692967
C  C39  1  0.77800000  0.23820000  0.80580000  1.0 -0.1766692967
C  C40  1  0.23820000  0.77800000  0.69420000  1.0 -0.1766692967
C  C41  1  0.12210000  0.77290000  0.16830000  1.0 0.2207290463
C  C42  1  0.77290000  0.12210000  0.33170000  1.0 0.2207290463
C  C43  1  0.87790000  0.22710000  0.83170000  1.0 0.2207290463
C  C44  1  0.22710000  0.87790000  0.66830000  1.0 0.2207290463
C  C45  1  0.15360000  0.82260000  0.26820000  1.0 -0.228469544
C  C46  1  0.82260000  0.15360000  0.23180000  1.0 -0.228469544
C  C47  1  0.84640000  0.17740000  0.73180000  1.0 -0.228469544
C  C48  1  0.17740000  0.84640000  0.76820000  1.0 -0.228469544
C  C49  1  0.11340000  0.84420000  0.31300000  1.0 -0.1455191419
C  C50  1  0.84420000  0.11340000  0.18700000  1.0 -0.1455191419
C  C51  1  0.88660000  0.15580000  0.68700000  1.0 -0.1455191419
C  C52  1  0.15580000  0.88660000  0.81300000  1.0 -0.1455191419
C  C53  1  0.04320000  0.81620000  0.26510000  1.0 0.0423761297
C  C54  1  0.81620000  0.04320000  0.23490000  1.0 0.0423761297
C  C55  1  0.95680000  0.18380000  0.73490000  1.0 0.0423761297
C  C56  1  0.18380000  0.95680000  0.76510000  1.0 0.0423761297
C  C57  1  0.01440000  0.76600000  0.16410000  1.0 -0.1405915812
C  C58  1  0.76600000  0.01440000  0.33590000  1.0 -0.1405915812
C  C59  1  0.98560000  0.23400000  0.83590000  1.0 -0.1405915812
C  C60  1  0.23400000  0.98560000  0.66410000  1.0 -0.1405915812
C  C61  1  0.05230000  0.74330000  0.11410000  1.0 -0.2218644665
C  C62  1  0.74330000  0.05230000  0.38590000  1.0 -0.2218644665
C  C63  1  0.94770000  0.25670000  0.88590000  1.0 -0.2218644665
C  C64  1  0.25670000  0.94770000  0.61410000  1.0 -0.2218644665
C  C65  1  0.99710000  0.83110000  0.33360000  1.0 0.1704828992
C  C66  1  0.83110000  0.99710000  0.16640000  1.0 0.1704828992
C  C67  1  0.00290000  0.16890000  0.66640000  1.0 0.1704828992
C  C68  1  0.16890000  0.00290000  0.83360000  1.0 0.1704828992
C  C69  1  0.95330000  0.84810000  0.20630000  1.0 -0.476114151
C  C70  1  0.84810000  0.95330000  0.29370000  1.0 -0.476114151
C  C71  1  0.04670000  0.15190000  0.79370000  1.0 -0.476114151
C  C72  1  0.15190000  0.04670000  0.70630000  1.0 -0.476114151
C  C73  1  0.04070000  0.89570000  0.42230000  1.0 -0.476114151
C  C74  1  0.89570000  0.04070000  0.07770000  1.0 -0.476114151
C  C75  1  0.95930000  0.10430000  0.57770000  1.0 -0.476114151
C  C76  1  0.10430000  0.95930000  0.92230000  1.0 -0.476114151
C  C77  1  0.52600000  0.27600000  0.76000000  1.0 0.1401534908
C  C78  1  0.27600000  0.52600000  0.74000000  1.0 0.1401534908
C  C79  1  0.47400000  0.72400000  0.24000000  1.0 0.1401534908
C  C80  1  0.72400000  0.47400000  0.26000000  1.0 0.1401534908
C  C81  1  0.46340000  0.23780000  0.65500000  1.0 0.0895277068
C  C82  1  0.23780000  0.46340000  0.84500000  1.0 0.0895277068
C  C83  1  0.53660000  0.76220000  0.34500000  1.0 0.0895277068
C  C84  1  0.76220000  0.53660000  0.15500000  1.0 0.0895277068
C  C85  1  0.35790000  0.22930000  0.55140000  1.0 0.25372333
C  C86  1  0.22930000  0.35790000  0.94860000  1.0 0.25372333
C  C87  1  0.64210000  0.77070000  0.44860000  1.0 0.25372333
C  C88  1  0.77070000  0.64210000  0.05140000  1.0 0.25372333
C  C89  1  0.33670000  0.17750000  0.45950000  1.0 -0.3310849712
C  C90  1  0.17750000  0.33670000  0.04050000  1.0 -0.3310849712
C  C91  1  0.66330000  0.82250000  0.54050000  1.0 -0.3310849712
C  C92  1  0.82250000  0.66330000  0.95950000  1.0 -0.3310849712
C  C93  1  0.27490000  0.15750000  0.36460000  1.0 -0.1167456471
C  C94  1  0.15750000  0.27490000  0.13540000  1.0 -0.1167456471
C  C95  1  0.72510000  0.84250000  0.63540000  1.0 -0.1167456471
C  C96  1  0.84250000  0.72510000  0.86460000  1.0 -0.1167456471
C  C97  1  0.23630000  0.18870000  0.35620000  1.0 0.0423761297
C  C98  1  0.18870000  0.23630000  0.14380000  1.0 0.0423761297
C  C99  1  0.76370000  0.81130000  0.64380000  1.0 0.0423761297
C  C100  1  0.81130000  0.76370000  0.85620000  1.0 0.0423761297
C  C101  1  0.25910000  0.23970000  0.45270000  1.0 -0.1167456471
C  C102  1  0.23970000  0.25910000  0.04730000  1.0 -0.1167456471
C  C103  1  0.74090000  0.76030000  0.54730000  1.0 -0.1167456471
C  C104  1  0.76030000  0.74090000  0.95270000  1.0 -0.1167456471
C  C105  1  0.31750000  0.25830000  0.55410000  1.0 -0.249477904
C  C106  1  0.25830000  0.31750000  0.94590000  1.0 -0.249477904
C  C107  1  0.68250000  0.74170000  0.44590000  1.0 -0.249477904
C  C108  1  0.74170000  0.68250000  0.05410000  1.0 -0.249477904
C  C109  1  0.17210000  0.17210000  0.25000000  1.0 0.1704828992
C  C110  1  0.82790000  0.82790000  0.75000000  1.0 0.1649836703
C  C111  1  0.15020000  0.11140000  0.15920000  1.0 -0.4738082186
C  C112  1  0.11140000  0.15020000  0.34080000  1.0 -0.4738082186
C  C113  1  0.84980000  0.88860000  0.84080000  1.0 -0.4738082186
C  C114  1  0.88860000  0.84980000  0.65920000  1.0 -0.4738082186
C  C115  1  0.96440000  0.57160000  0.39200000  1.0 0.2785469397
C  C116  1  0.57160000  0.96440000  0.10800000  1.0 0.2785469397
C  C117  1  0.03560000  0.42840000  0.60800000  1.0 0.2785469397
C  C118  1  0.42840000  0.03560000  0.89200000  1.0 0.2785469397
C  C119  1  0.05520000  0.56780000  0.29400000  1.0 -0.3569839493
C  C120  1  0.56780000  0.05520000  0.20600000  1.0 -0.3569839493
C  C121  1  0.94480000  0.43220000  0.70600000  1.0 -0.3569839493
C  C122  1  0.43220000  0.94480000  0.79400000  1.0 -0.3569839493
C  C123  1  0.08360000  0.64080000  0.50100000  1.0 -0.3569839493
C  C124  1  0.64080000  0.08360000  0.99900000  1.0 -0.3569839493
C  C125  1  0.91640000  0.35920000  0.49900000  1.0 -0.3569839493
C  C126  1  0.35920000  0.91640000  0.00100000  1.0 -0.3569839493
C  C127  1  0.51600000  0.22400000  0.76500000  1.0 0.25372333
C  C128  1  0.22400000  0.51600000  0.73500000  1.0 0.25372333
C  C129  1  0.48400000  0.77600000  0.23500000  1.0 0.25372333
C  C130  1  0.77600000  0.48400000  0.26500000  1.0 0.25372333
C  C131  1  0.44900000  0.19500000  0.66300000  1.0 -0.0944727407
C  C132  1  0.19500000  0.44900000  0.83700000  1.0 -0.0944727407
C  C133  1  0.55100000  0.80500000  0.33700000  1.0 -0.0944727407
C  C134  1  0.80500000  0.55100000  0.16300000  1.0 -0.0944727407
N  N1  1  0.03180000  0.59240000  0.39500000  1.0 0.0496843114
N  N2  1  0.59240000  0.03180000  0.10500000  1.0 0.0496843114
N  N3  1  0.96820000  0.40760000  0.60500000  1.0 0.0496843114
N  N4  1  0.40760000  0.96820000  0.89500000  1.0 0.0496843114
O  O1  1  0.69400000  0.41240000  0.73200000  1.0 -0.2966482834
O  O2  1  0.41240000  0.69400000  0.76800000  1.0 -0.2966482834
O  O3  1  0.30600000  0.58760000  0.26800000  1.0 -0.2966482834
O  O4  1  0.58760000  0.30600000  0.23200000  1.0 -0.2966482834
O  O5  1  0.78520000  0.46580000  0.89300000  1.0 -0.249477904
O  O6  1  0.46580000  0.78520000  0.60700000  1.0 -0.2608072654
O  O7  1  0.21480000  0.53420000  0.10700000  1.0 -0.249477904
O  O8  1  0.53420000  0.21480000  0.39300000  1.0 -0.249477904
O  O9  1  0.84410000  0.57750000  0.70860000  1.0 -0.2608072654
O  O10  1  0.57750000  0.84410000  0.79140000  1.0 -0.2608072654
O  O11  1  0.15590000  0.42250000  0.29140000  1.0 -0.2608072654
O  O12  1  0.42250000  0.15590000  0.20860000  1.0 -0.2608072654
O  O13  1  0.30030000  0.72810000  0.20350000  1.0 -0.5716574685
O  O14  1  0.72810000  0.30030000  0.29650000  1.0 -0.5716574685
O  O15  1  0.69970000  0.27190000  0.79650000  1.0 -0.5716574685
O  O16  1  0.27190000  0.69970000  0.70350000  1.0 -0.5716574685
O  O17  1  0.21410000  0.68650000  0.02870000  1.0 -0.5317576126
O  O18  1  0.68650000  0.21410000  0.47130000  1.0 -0.5317576126
O  O19  1  0.78590000  0.31350000  0.97130000  1.0 -0.5317576126
O  O20  1  0.31350000  0.78590000  0.52870000  1.0 -0.5317576126
O  O21  1  0.15560000  0.74480000  0.11650000  1.0 -0.2010978804
O  O22  1  0.74480000  0.15560000  0.38350000  1.0 -0.2010978804
O  O23  1  0.84440000  0.25520000  0.88350000  1.0 -0.2010978804
O  O24  1  0.25520000  0.84440000  0.61650000  1.0 -0.2010978804
O  O25  1  0.57520000  0.27260000  0.73890000  1.0 -0.0565263488
O  O26  1  0.27260000  0.57520000  0.76110000  1.0 -0.0565263488
O  O27  1  0.42480000  0.72740000  0.26110000  1.0 -0.0565263488
O  O28  1  0.72740000  0.42480000  0.23890000  1.0 -0.0565263488
O  O29  1  0.53050000  0.31150000  0.85520000  1.0 -0.1691680894
O  O30  1  0.31150000  0.53050000  0.64480000  1.0 -0.1691680894
O  O31  1  0.46950000  0.68850000  0.14480000  1.0 -0.1691680894
O  O32  1  0.68850000  0.46950000  0.35520000  1.0 -0.1691680894
O  O33  1  0.41430000  0.25670000  0.66600000  1.0 -0.0565263488
O  O34  1  0.25670000  0.41430000  0.83400000  1.0 -0.0565263488
O  O35  1  0.58570000  0.74330000  0.33400000  1.0 -0.0565263488
O  O36  1  0.74330000  0.58570000  0.16600000  1.0 -0.0565263488
O  O37  1  0.92310000  0.35990000  0.13270000  1.0 -0.7216316954
O  O38  1  0.35990000  0.92310000  0.36730000  1.0 -0.7216316954
O  O39  1  0.07690000  0.64010000  0.86730000  1.0 -0.7216316954
O  O40  1  0.64010000  0.07690000  0.63270000  1.0 -0.7216316954
O  O41  1  0.93550000  0.55330000  0.93970000  1.0 -0.7061017797
O  O42  1  0.55330000  0.93550000  0.56030000  1.0 -0.7061017797
O  O43  1  0.06450000  0.44670000  0.06030000  1.0 -0.7061017797
O  O44  1  0.44670000  0.06450000  0.43970000  1.0 -0.7061017797
O  O45  1  0.92640000  0.53000000  0.29500000  1.0 -0.4963207439
O  O46  1  0.53000000  0.92640000  0.20500000  1.0 -0.4963207439
O  O47  1  0.07360000  0.47000000  0.70500000  1.0 -0.4963207439
O  O48  1  0.47000000  0.07360000  0.79500000  1.0 -0.4963207439
O  O49  1  0.68790000  0.44730000  0.82300000  1.0 -0.3178620533
O  O50  1  0.44730000  0.68790000  0.67700000  1.0 -0.3178620533
O  O51  1  0.31210000  0.55270000  0.17700000  1.0 -0.3178620533
O  O52  1  0.55270000  0.31210000  0.32300000  1.0 -0.3178620533
O  O53  1  0.78080000  0.44120000  0.83400000  1.0 -0.1119697288
O  O54  1  0.44120000  0.78080000  0.66600000  1.0 -0.1167456471
O  O55  1  0.21920000  0.55880000  0.16600000  1.0 -0.1167456471
O  O56  1  0.55880000  0.21920000  0.33400000  1.0 -0.1119697288
O  O57  1  0.54400000  0.28800000  0.77000000  1.0 0.0698370814
O  O58  1  0.28800000  0.54400000  0.73000000  1.0 0.0638033578
O  O59  1  0.45600000  0.71200000  0.23000000  1.0 0.0638033578
O  O60  1  0.71200000  0.45600000  0.27000000  1.0 0.0638033578
O  O61  1  0.53600000  0.18820000  0.84000000  1.0 -0.4248488144
O  O62  1  0.18820000  0.53600000  0.66000000  1.0 -0.4250150219
O  O63  1  0.46400000  0.81180000  0.16000000  1.0 -0.4250150219
O  O64  1  0.81180000  0.46400000  0.34000000  1.0 -0.4250150219
O  O65  1  0.42440000  0.24160000  0.61700000  1.0 -0.0052481366
O  O66  1  0.24160000  0.42440000  0.88300000  1.0 -0.0052481366
O  O67  1  0.57560000  0.75840000  0.38300000  1.0 -0.0052481366
O  O68  1  0.75840000  0.57560000  0.11700000  1.0 -0.0045710497
