# DDEC6 charges by PACMAN v1.1 (https://github.com/mtap-research/PACMAN-charge/)
data_YAGLOL_ASR_pacman
_symmetry_space_group_name_H-M   'P 1'
_cell_length_a   14.27560000
_cell_length_b   14.27560000
_cell_length_c   30.98590000
_cell_angle_alpha   90.00000000
_cell_angle_beta   90.00000000
_cell_angle_gamma   120.00000000
_symmetry_Int_Tables_number   1
_chemical_formula_structural   Cr18H18C54O55
_chemical_formula_sum   'Cr36 H36 C108 O110'
_cell_volume   5468.69229590
_cell_formula_units_Z   2
loop_
 _symmetry_equiv_pos_site_id
 _symmetry_equiv_pos_as_xyz
  1  'x, y, z'
loop_
 _atom_site_type_symbol
 _atom_site_label
 _atom_site_symmetry_multiplicity
 _atom_site_fract_x
 _atom_site_fract_y
 _atom_site_fract_z
 _atom_site_occupancy
 _atom_site_charge
Cr  Cr1  1  0.58579000  0.16307000  0.58623000  1.0 1.8387707926
Cr  Cr2  1  0.83693000  0.42272000  0.58623000  1.0 1.834135542
Cr  Cr3  1  0.57728000  0.41421000  0.58623000  1.0 1.8387707926
Cr  Cr4  1  0.41421000  0.83693000  0.08623000  1.0 1.8387707926
Cr  Cr5  1  0.16307000  0.57728000  0.08623000  1.0 1.8387707926
Cr  Cr6  1  0.42272000  0.58579000  0.08623000  1.0 1.8387707926
Cr  Cr7  1  0.16307000  0.58579000  0.41377000  1.0 1.8387707926
Cr  Cr8  1  0.42272000  0.83693000  0.41377000  1.0 1.8387707926
Cr  Cr9  1  0.41421000  0.57728000  0.41377000  1.0 1.8387707926
Cr  Cr10  1  0.83693000  0.41421000  0.91377000  1.0 1.834135542
Cr  Cr11  1  0.57728000  0.16307000  0.91377000  1.0 1.8387707926
Cr  Cr12  1  0.58579000  0.42272000  0.91377000  1.0 1.8387707926
Cr  Cr13  1  0.41421000  0.83693000  0.41377000  1.0 1.8387707926
Cr  Cr14  1  0.16307000  0.57728000  0.41377000  1.0 1.8387707926
Cr  Cr15  1  0.42272000  0.58579000  0.41377000  1.0 1.8387707926
Cr  Cr16  1  0.58579000  0.16307000  0.91377000  1.0 1.8387707926
Cr  Cr17  1  0.83693000  0.42272000  0.91377000  1.0 1.834135542
Cr  Cr18  1  0.57728000  0.41421000  0.91377000  1.0 1.8387707926
Cr  Cr19  1  0.83693000  0.41421000  0.58623000  1.0 1.834135542
Cr  Cr20  1  0.57728000  0.16307000  0.58623000  1.0 1.8387707926
Cr  Cr21  1  0.58579000  0.42272000  0.58623000  1.0 1.8387707926
Cr  Cr22  1  0.16307000  0.58579000  0.08623000  1.0 1.8387707926
Cr  Cr23  1  0.42272000  0.83693000  0.08623000  1.0 1.8387707926
Cr  Cr24  1  0.41421000  0.57728000  0.08623000  1.0 1.8387707926
Cr  Cr25  1  0.92059000  0.07941000  0.75000000  1.0 1.6175327596
Cr  Cr26  1  0.92059000  0.84118000  0.75000000  1.0 1.6175327596
Cr  Cr27  1  0.15882000  0.07941000  0.75000000  1.0 1.6175327596
Cr  Cr28  1  0.07941000  0.92059000  0.25000000  1.0 1.6175327596
Cr  Cr29  1  0.07941000  0.15882000  0.25000000  1.0 1.6175327596
Cr  Cr30  1  0.84118000  0.92059000  0.25000000  1.0 1.6175327596
Cr  Cr31  1  0.50000000  0.00000000  0.50000000  1.0 1.604909072
Cr  Cr32  1  0.00000000  0.50000000  0.50000000  1.0 1.604909072
Cr  Cr33  1  0.50000000  0.50000000  0.50000000  1.0 1.6056304074
Cr  Cr34  1  0.50000000  0.00000000  0.00000000  1.0 1.604909072
Cr  Cr35  1  0.00000000  0.50000000  0.00000000  1.0 1.604909072
Cr  Cr36  1  0.50000000  0.50000000  0.00000000  1.0 1.604909072
H  H1  1  0.72689000  0.00439000  0.64510000  1.0 0.136636641
H  H2  1  0.99561000  0.72250000  0.64510000  1.0 0.136636641
H  H3  1  0.27750000  0.27311000  0.64510000  1.0 0.136636641
H  H4  1  0.27311000  0.99561000  0.14510000  1.0 0.136636641
H  H5  1  0.00439000  0.27750000  0.14510000  1.0 0.136636641
H  H6  1  0.72250000  0.72689000  0.14510000  1.0 0.136636641
H  H7  1  0.00439000  0.72689000  0.35490000  1.0 0.136636641
H  H8  1  0.72250000  0.99561000  0.35490000  1.0 0.136636641
H  H9  1  0.27311000  0.27750000  0.35490000  1.0 0.136636641
H  H10  1  0.99561000  0.27311000  0.85490000  1.0 0.136636641
H  H11  1  0.27750000  0.00439000  0.85490000  1.0 0.136636641
H  H12  1  0.72689000  0.72250000  0.85490000  1.0 0.136636641
H  H13  1  0.27311000  0.99561000  0.35490000  1.0 0.136636641
H  H14  1  0.00439000  0.27750000  0.35490000  1.0 0.136636641
H  H15  1  0.72250000  0.72689000  0.35490000  1.0 0.136636641
H  H16  1  0.72689000  0.00439000  0.85490000  1.0 0.136636641
H  H17  1  0.99561000  0.72250000  0.85490000  1.0 0.136636641
H  H18  1  0.27750000  0.27311000  0.85490000  1.0 0.136636641
H  H19  1  0.99561000  0.27311000  0.64510000  1.0 0.136636641
H  H20  1  0.27750000  0.00439000  0.64510000  1.0 0.136636641
H  H21  1  0.72689000  0.72250000  0.64510000  1.0 0.136636641
H  H22  1  0.00439000  0.72689000  0.14510000  1.0 0.136636641
H  H23  1  0.72250000  0.99561000  0.14510000  1.0 0.136636641
H  H24  1  0.27311000  0.27750000  0.14510000  1.0 0.136636641
H  H25  1  0.57899000  0.78949000  0.55070000  1.0 0.136636641
H  H26  1  0.21051000  0.78949000  0.55070000  1.0 0.136636641
H  H27  1  0.21051000  0.42101000  0.55070000  1.0 0.136636641
H  H28  1  0.42101000  0.21050000  0.05070000  1.0 0.136636641
H  H29  1  0.78949000  0.21050000  0.05070000  1.0 0.136636641
H  H30  1  0.78949000  0.57899000  0.05070000  1.0 0.136636641
H  H31  1  0.78949000  0.57899000  0.44930000  1.0 0.136636641
H  H32  1  0.78949000  0.21050000  0.44930000  1.0 0.136636641
H  H33  1  0.42101000  0.21050000  0.44930000  1.0 0.136636641
H  H34  1  0.21051000  0.42101000  0.94930000  1.0 0.136636641
H  H35  1  0.21051000  0.78949000  0.94930000  1.0 0.136636641
H  H36  1  0.57899000  0.78949000  0.94930000  1.0 0.136636641
C  C1  1  0.70599000  0.93629000  0.63241000  1.0 -0.0800020481
C  C2  1  0.64389000  0.90619000  0.59422000  1.0 -0.0514999035
C  C3  1  0.60909000  0.97519000  0.57378000  1.0 0.3707125716
C  C4  1  0.06371000  0.76970000  0.63241000  1.0 -0.0800020481
C  C5  1  0.09381000  0.73770000  0.59422000  1.0 -0.0514999035
C  C6  1  0.02481000  0.63390000  0.57378000  1.0 0.3707125716
C  C7  1  0.23030000  0.29401000  0.63241000  1.0 -0.0800020481
C  C8  1  0.26230000  0.35611000  0.59422000  1.0 -0.0514999035
C  C9  1  0.36610000  0.39091000  0.57378000  1.0 0.3707125716
C  C10  1  0.29401000  0.06371000  0.13241000  1.0 -0.0800020481
C  C11  1  0.35611000  0.09381000  0.09422000  1.0 -0.0514999035
C  C12  1  0.39091000  0.02481000  0.07378000  1.0 0.3707125716
C  C13  1  0.93629000  0.23030000  0.13241000  1.0 -0.0800020481
C  C14  1  0.90619000  0.26230000  0.09422000  1.0 -0.0514999035
C  C15  1  0.97519000  0.36610000  0.07378000  1.0 0.3707125716
C  C16  1  0.76970000  0.70599000  0.13241000  1.0 -0.0800020481
C  C17  1  0.73770000  0.64389000  0.09422000  1.0 -0.0514999035
C  C18  1  0.63390000  0.60909000  0.07378000  1.0 0.3707125716
C  C19  1  0.93629000  0.70599000  0.36759000  1.0 -0.0800020481
C  C20  1  0.90619000  0.64389000  0.40578000  1.0 -0.0514999035
C  C21  1  0.97519000  0.60909000  0.42622000  1.0 0.3707125716
C  C22  1  0.76970000  0.06371000  0.36759000  1.0 -0.0800020481
C  C23  1  0.73770000  0.09381000  0.40578000  1.0 -0.0514999035
C  C24  1  0.63390000  0.02481000  0.42622000  1.0 0.3707125716
C  C25  1  0.29401000  0.23030000  0.36759000  1.0 -0.0800020481
C  C26  1  0.35611000  0.26230000  0.40578000  1.0 -0.0514999035
C  C27  1  0.39091000  0.36610000  0.42622000  1.0 0.3707125716
C  C28  1  0.06371000  0.29401000  0.86759000  1.0 -0.0800020481
C  C29  1  0.09381000  0.35611000  0.90578000  1.0 -0.0514999035
C  C30  1  0.02481000  0.39091000  0.92622000  1.0 0.3798012233
C  C31  1  0.23030000  0.93629000  0.86759000  1.0 -0.0800020481
C  C32  1  0.26230000  0.90619000  0.90578000  1.0 -0.0514999035
C  C33  1  0.36610000  0.97519000  0.92622000  1.0 0.3707125716
C  C34  1  0.70599000  0.76970000  0.86759000  1.0 -0.0800020481
C  C35  1  0.64389000  0.73770000  0.90578000  1.0 -0.0514999035
C  C36  1  0.60909000  0.63390000  0.92622000  1.0 0.3707125716
C  C37  1  0.29401000  0.06371000  0.36759000  1.0 -0.0800020481
C  C38  1  0.35611000  0.09381000  0.40578000  1.0 -0.0514999035
C  C39  1  0.39091000  0.02481000  0.42622000  1.0 0.3707125716
C  C40  1  0.93629000  0.23030000  0.36759000  1.0 -0.0800020481
C  C41  1  0.90619000  0.26230000  0.40578000  1.0 -0.0514999035
C  C42  1  0.97519000  0.36610000  0.42622000  1.0 0.3707125716
C  C43  1  0.76970000  0.70599000  0.36759000  1.0 -0.0800020481
C  C44  1  0.73770000  0.64389000  0.40578000  1.0 -0.0514999035
C  C45  1  0.63390000  0.60909000  0.42622000  1.0 0.3707125716
C  C46  1  0.70599000  0.93629000  0.86759000  1.0 -0.0800020481
C  C47  1  0.64389000  0.90619000  0.90578000  1.0 -0.0514999035
C  C48  1  0.60909000  0.97519000  0.92622000  1.0 0.3707125716
C  C49  1  0.06371000  0.76970000  0.86759000  1.0 -0.0800020481
C  C50  1  0.09381000  0.73770000  0.90578000  1.0 -0.0514999035
C  C51  1  0.02481000  0.63390000  0.92622000  1.0 0.3707125716
C  C52  1  0.23030000  0.29401000  0.86759000  1.0 -0.0800020481
C  C53  1  0.26230000  0.35611000  0.90578000  1.0 -0.0514999035
C  C54  1  0.36610000  0.39091000  0.92622000  1.0 0.3707125716
C  C55  1  0.06371000  0.29401000  0.63241000  1.0 -0.0800020481
C  C56  1  0.09381000  0.35611000  0.59422000  1.0 -0.0514999035
C  C57  1  0.02481000  0.39091000  0.57378000  1.0 0.3798012233
C  C58  1  0.23030000  0.93629000  0.63241000  1.0 -0.0800020481
C  C59  1  0.26230000  0.90619000  0.59422000  1.0 -0.0514999035
C  C60  1  0.36610000  0.97519000  0.57378000  1.0 0.3707125716
C  C61  1  0.70599000  0.76970000  0.63241000  1.0 -0.0800020481
C  C62  1  0.64389000  0.73770000  0.59422000  1.0 -0.0514999035
C  C63  1  0.60909000  0.63390000  0.57378000  1.0 0.3707125716
C  C64  1  0.93629000  0.70599000  0.13241000  1.0 -0.0800020481
C  C65  1  0.90619000  0.64389000  0.09422000  1.0 -0.0514999035
C  C66  1  0.97519000  0.60909000  0.07378000  1.0 0.3707125716
C  C67  1  0.76970000  0.06371000  0.13241000  1.0 -0.0800020481
C  C68  1  0.73770000  0.09381000  0.09422000  1.0 -0.0514999035
C  C69  1  0.63390000  0.02481000  0.07378000  1.0 0.3707125716
C  C70  1  0.29401000  0.23030000  0.13241000  1.0 -0.0800020481
C  C71  1  0.35611000  0.26230000  0.09422000  1.0 -0.0514999035
C  C72  1  0.39091000  0.36610000  0.07378000  1.0 0.3707125716
C  C73  1  0.73649000  0.86824000  0.65150000  1.0 -0.0279085019
C  C74  1  0.61799000  0.80899000  0.57680000  1.0 -0.0514999035
C  C75  1  0.80299000  0.90150000  0.69154000  1.0 0.6206093924
C  C76  1  0.13175000  0.86824000  0.65150000  1.0 -0.0279085019
C  C77  1  0.19100000  0.80899000  0.57680000  1.0 -0.0514999035
C  C78  1  0.09851000  0.90150000  0.69154000  1.0 0.6206093924
C  C79  1  0.13176000  0.26351000  0.65150000  1.0 -0.0279085019
C  C80  1  0.19100000  0.38201000  0.57680000  1.0 -0.0514999035
C  C81  1  0.09850000  0.19701000  0.69154000  1.0 0.6206093924
C  C82  1  0.26351000  0.13176000  0.15150000  1.0 -0.0279085019
C  C83  1  0.38201000  0.19100000  0.07680000  1.0 -0.0514999035
C  C84  1  0.19701000  0.09850000  0.19154000  1.0 0.6206093924
C  C85  1  0.86825000  0.13176000  0.15150000  1.0 -0.0279085019
C  C86  1  0.80900000  0.19100000  0.07680000  1.0 -0.0514999035
C  C87  1  0.90150000  0.09850000  0.19154000  1.0 0.6206093924
C  C88  1  0.86825000  0.73649000  0.15150000  1.0 -0.0279085019
C  C89  1  0.80899000  0.61799000  0.07680000  1.0 -0.0514999035
C  C90  1  0.90150000  0.80299000  0.19154000  1.0 0.6206093924
C  C91  1  0.86825000  0.73649000  0.34850000  1.0 -0.0279085019
C  C92  1  0.80899000  0.61799000  0.42320000  1.0 -0.0514999035
C  C93  1  0.90150000  0.80299000  0.30846000  1.0 0.6206093924
C  C94  1  0.86825000  0.13176000  0.34850000  1.0 -0.0279085019
C  C95  1  0.80900000  0.19100000  0.42320000  1.0 -0.0514999035
C  C96  1  0.90150000  0.09850000  0.30846000  1.0 0.6206093924
C  C97  1  0.26351000  0.13176000  0.34850000  1.0 -0.0279085019
C  C98  1  0.38201000  0.19100000  0.42320000  1.0 -0.0514999035
C  C99  1  0.19701000  0.09850000  0.30846000  1.0 0.6206093924
C  C100  1  0.13176000  0.26351000  0.84850000  1.0 -0.0279085019
C  C101  1  0.19100000  0.38201000  0.92320000  1.0 -0.0514999035
C  C102  1  0.09850000  0.19701000  0.80846000  1.0 0.6206093924
C  C103  1  0.13175000  0.86824000  0.84850000  1.0 -0.0279085019
C  C104  1  0.19100000  0.80899000  0.92320000  1.0 -0.0514999035
C  C105  1  0.09851000  0.90150000  0.80846000  1.0 0.6206093924
C  C106  1  0.73649000  0.86824000  0.84850000  1.0 -0.0279085019
C  C107  1  0.61799000  0.80899000  0.92320000  1.0 -0.0514999035
C  C108  1  0.80299000  0.90150000  0.80846000  1.0 0.6206093924
O  O1  1  0.82862000  0.99282000  0.70681000  1.0 -0.5450172328
O  O2  1  0.62231000  0.05853000  0.59420000  1.0 -0.7054220342
O  O3  1  0.56889000  0.95116000  0.53712000  1.0 -0.4855864225
O  O4  1  0.00718000  0.83580000  0.70681000  1.0 -0.5450172328
O  O5  1  0.94147000  0.56378000  0.59420000  1.0 -0.7054220342
O  O6  1  0.04884000  0.61773000  0.53712000  1.0 -0.4855864225
O  O7  1  0.16420000  0.17138000  0.70681000  1.0 -0.5450172328
O  O8  1  0.43622000  0.37769000  0.59420000  1.0 -0.7023858879
O  O9  1  0.38227000  0.43111000  0.53712000  1.0 -0.4855864225
O  O10  1  0.17138000  0.00718000  0.20681000  1.0 -0.5443233156
O  O11  1  0.37769000  0.94147000  0.09420000  1.0 -0.7023858879
O  O12  1  0.43111000  0.04884000  0.03712000  1.0 -0.4855864225
O  O13  1  0.99282000  0.16420000  0.20681000  1.0 -0.5443233156
O  O14  1  0.05853000  0.43622000  0.09420000  1.0 -0.7054220342
O  O15  1  0.95116000  0.38227000  0.03712000  1.0 -0.4855864225
O  O16  1  0.83580000  0.82862000  0.20681000  1.0 -0.5450172328
O  O17  1  0.56378000  0.62231000  0.09420000  1.0 -0.7023858879
O  O18  1  0.61773000  0.56889000  0.03712000  1.0 -0.4855864225
O  O19  1  0.99282000  0.82862000  0.29319000  1.0 -0.5443233156
O  O20  1  0.05853000  0.62231000  0.40580000  1.0 -0.7023858879
O  O21  1  0.95116000  0.56889000  0.46288000  1.0 -0.4855864225
O  O22  1  0.83580000  0.00718000  0.29319000  1.0 -0.5443233156
O  O23  1  0.56378000  0.94147000  0.40580000  1.0 -0.7023858879
O  O24  1  0.61773000  0.04884000  0.46288000  1.0 -0.4855864225
O  O25  1  0.17138000  0.16420000  0.29319000  1.0 -0.5450172328
O  O26  1  0.37769000  0.43622000  0.40580000  1.0 -0.7054220342
O  O27  1  0.43111000  0.38227000  0.46288000  1.0 -0.4855864225
O  O28  1  0.00718000  0.17138000  0.79319000  1.0 -0.5450172328
O  O29  1  0.94147000  0.37769000  0.90580000  1.0 -0.7023858879
O  O30  1  0.04884000  0.43111000  0.96288000  1.0 -0.4855864225
O  O31  1  0.16420000  0.99282000  0.79319000  1.0 -0.5443233156
O  O32  1  0.43622000  0.05853000  0.90580000  1.0 -0.7054220342
O  O33  1  0.38227000  0.95116000  0.96288000  1.0 -0.4855864225
O  O34  1  0.82862000  0.83580000  0.79319000  1.0 -0.5450172328
O  O35  1  0.62231000  0.56378000  0.90580000  1.0 -0.7054220342
O  O36  1  0.56889000  0.61773000  0.96288000  1.0 -0.4855864225
O  O37  1  0.17138000  0.00718000  0.29319000  1.0 -0.5443233156
O  O38  1  0.37769000  0.94147000  0.40580000  1.0 -0.7023858879
O  O39  1  0.43111000  0.04884000  0.46288000  1.0 -0.4855864225
O  O40  1  0.99282000  0.16420000  0.29319000  1.0 -0.5443233156
O  O41  1  0.05853000  0.43622000  0.40580000  1.0 -0.7054220342
O  O42  1  0.95116000  0.38227000  0.46288000  1.0 -0.4855864225
O  O43  1  0.83580000  0.82862000  0.29319000  1.0 -0.5450172328
O  O44  1  0.56378000  0.62231000  0.40580000  1.0 -0.7023858879
O  O45  1  0.61773000  0.56889000  0.46288000  1.0 -0.4855864225
O  O46  1  0.82862000  0.99282000  0.79319000  1.0 -0.5450172328
O  O47  1  0.62231000  0.05853000  0.90580000  1.0 -0.7054220342
O  O48  1  0.56889000  0.95116000  0.96288000  1.0 -0.4855864225
O  O49  1  0.00718000  0.83580000  0.79319000  1.0 -0.5450172328
O  O50  1  0.94147000  0.56378000  0.90580000  1.0 -0.7054220342
O  O51  1  0.04884000  0.61773000  0.96288000  1.0 -0.4855864225
O  O52  1  0.16420000  0.17138000  0.79319000  1.0 -0.5450172328
O  O53  1  0.43622000  0.37769000  0.90580000  1.0 -0.7023858879
O  O54  1  0.38227000  0.43111000  0.96288000  1.0 -0.4855864225
O  O55  1  0.00718000  0.17138000  0.70681000  1.0 -0.5450172328
O  O56  1  0.94147000  0.37769000  0.59420000  1.0 -0.7023858879
O  O57  1  0.04884000  0.43111000  0.53712000  1.0 -0.4855864225
O  O58  1  0.16420000  0.99282000  0.70681000  1.0 -0.5443233156
O  O59  1  0.43622000  0.05853000  0.59420000  1.0 -0.7054220342
O  O60  1  0.38227000  0.95116000  0.53712000  1.0 -0.4855864225
O  O61  1  0.82862000  0.83580000  0.70681000  1.0 -0.5450172328
O  O62  1  0.62231000  0.56378000  0.59420000  1.0 -0.7054220342
O  O63  1  0.56889000  0.61773000  0.53712000  1.0 -0.4855864225
O  O64  1  0.99282000  0.82862000  0.20681000  1.0 -0.5443233156
O  O65  1  0.05853000  0.62231000  0.09420000  1.0 -0.7023858879
O  O66  1  0.95116000  0.56889000  0.03712000  1.0 -0.4855864225
O  O67  1  0.83580000  0.00718000  0.20681000  1.0 -0.5443233156
O  O68  1  0.56378000  0.94147000  0.09420000  1.0 -0.7023858879
O  O69  1  0.61773000  0.04884000  0.03712000  1.0 -0.4855864225
O  O70  1  0.17138000  0.16420000  0.20681000  1.0 -0.5443233156
O  O71  1  0.37769000  0.43622000  0.09420000  1.0 -0.7054220342
O  O72  1  0.43111000  0.38227000  0.03712000  1.0 -0.4855864225
O  O73  1  0.56724000  0.13449000  0.52524000  1.0 -1.011231085
O  O74  1  0.59435000  0.18869000  0.64497000  1.0 -0.940303485
O  O75  1  0.86551000  0.43275000  0.52524000  1.0 -1.011231085
O  O76  1  0.81131000  0.40565000  0.64497000  1.0 -0.940303485
O  O77  1  0.56724000  0.43275000  0.52524000  1.0 -1.011231085
O  O78  1  0.59435000  0.40565000  0.64497000  1.0 -0.940303485
O  O79  1  0.43275000  0.86551000  0.02524000  1.0 -1.011231085
O  O80  1  0.40565000  0.81131000  0.14497000  1.0 -0.940303485
O  O81  1  0.13449000  0.56724000  0.02524000  1.0 -1.011231085
O  O82  1  0.18869000  0.59435000  0.14497000  1.0 -0.940303485
O  O83  1  0.43276000  0.56724000  0.02524000  1.0 -1.011231085
O  O84  1  0.40566000  0.59435000  0.14497000  1.0 -0.940303485
O  O85  1  0.13449000  0.56724000  0.47476000  1.0 -1.011231085
O  O86  1  0.18869000  0.59435000  0.35503000  1.0 -0.940303485
O  O87  1  0.43275000  0.86551000  0.47476000  1.0 -1.011231085
O  O88  1  0.40565000  0.81131000  0.35503000  1.0 -0.940303485
O  O89  1  0.43276000  0.56724000  0.47476000  1.0 -1.011231085
O  O90  1  0.40566000  0.59435000  0.35503000  1.0 -0.940303485
O  O91  1  0.86551000  0.43275000  0.97476000  1.0 -1.011231085
O  O92  1  0.81131000  0.40565000  0.85503000  1.0 -0.940303485
O  O93  1  0.56724000  0.13449000  0.97476000  1.0 -1.011231085
O  O94  1  0.59435000  0.18869000  0.85503000  1.0 -0.940303485
O  O95  1  0.56724000  0.43275000  0.97476000  1.0 -1.011231085
O  O96  1  0.59435000  0.40565000  0.85503000  1.0 -0.940303485
O  O97  1  0.73007000  0.26993000  0.57767000  1.0 -1.1078542971
O  O98  1  0.73007000  0.46014000  0.57767000  1.0 -1.1078542971
O  O99  1  0.53986000  0.26993000  0.57767000  1.0 -1.1078542971
O  O100  1  0.26993000  0.73007000  0.07767000  1.0 -1.1078542971
O  O101  1  0.26993000  0.53986000  0.07767000  1.0 -1.1078542971
O  O102  1  0.46014000  0.73007000  0.07767000  1.0 -1.1078542971
O  O103  1  0.26993000  0.73007000  0.42233000  1.0 -1.1078542971
O  O104  1  0.46014000  0.73007000  0.42233000  1.0 -1.1078542971
O  O105  1  0.26993000  0.53986000  0.42233000  1.0 -1.1078542971
O  O106  1  0.73007000  0.26993000  0.92233000  1.0 -1.1078542971
O  O107  1  0.53986000  0.26993000  0.92233000  1.0 -1.1078542971
O  O108  1  0.73007000  0.46014000  0.92233000  1.0 -1.1078542971
O  O109  1  0.00000000  0.00000000  0.75000000  1.0 -1.1433386707
O  O110  1  0.00000000  0.00000000  0.25000000  1.0 -1.1433386707
