# DDEC6 charges by PACMAN v1.1 (https://github.com/mtap-research/PACMAN-charge/)
data_YAGRON_ASR_pacman
_symmetry_space_group_name_H-M   'P 1'
_cell_length_a   10.25410000
_cell_length_b   10.25410000
_cell_length_c   19.84000000
_cell_angle_alpha   75.80480000
_cell_angle_beta   104.19500000
_cell_angle_gamma   122.53300000
_symmetry_Int_Tables_number   1
_chemical_formula_structural   Ga3P3HO13F3
_chemical_formula_sum   'Ga12 P12 H4 O52 F12'
_cell_volume   1688.58338831
_cell_formula_units_Z   4
loop_
 _symmetry_equiv_pos_site_id
 _symmetry_equiv_pos_as_xyz
  1  'x, y, z'
loop_
 _atom_site_type_symbol
 _atom_site_label
 _atom_site_symmetry_multiplicity
 _atom_site_fract_x
 _atom_site_fract_y
 _atom_site_fract_z
 _atom_site_occupancy
 _atom_site_charge
Ga  Ga1  1  0.85290000  0.00330000  0.49890000  1.0 1.4346642429
Ga  Ga2  1  0.00330000  0.85290000  0.00110000  1.0 1.4396149877
Ga  Ga3  1  0.14710000  0.99670000  0.50110000  1.0 1.4396149877
Ga  Ga4  1  0.99670000  0.14710000  0.99890000  1.0 1.4396149877
Ga  Ga5  1  0.23030000  0.61150000  0.33880000  1.0 1.4055756862
Ga  Ga6  1  0.61150000  0.23030000  0.16120000  1.0 1.4030322964
Ga  Ga7  1  0.76970000  0.38850000  0.66120000  1.0 1.4030322964
Ga  Ga8  1  0.38850000  0.76970000  0.83880000  1.0 1.4055756862
Ga  Ga9  1  0.99220000  0.37280000  0.24060000  1.0 1.4396149877
Ga  Ga10  1  0.37280000  0.99220000  0.25940000  1.0 1.4396149877
Ga  Ga11  1  0.00780000  0.62720000  0.75940000  1.0 1.4396149877
Ga  Ga12  1  0.62720000  0.00780000  0.74060000  1.0 1.4396149877
P  P1  1  0.09110000  0.25350000  0.39510000  1.0 1.5204580481
P  P2  1  0.25350000  0.09110000  0.10490000  1.0 1.5089906389
P  P3  1  0.90890000  0.74650000  0.60490000  1.0 1.5089906389
P  P4  1  0.74650000  0.90890000  0.89510000  1.0 1.5089906389
P  P5  1  0.58710000  0.86890000  0.36840000  1.0 1.5204580481
P  P6  1  0.86890000  0.58710000  0.13160000  1.0 1.5204580481
P  P7  1  0.41290000  0.13110000  0.63160000  1.0 1.5204580481
P  P8  1  0.13110000  0.41290000  0.86840000  1.0 1.5204580481
P  P9  1  0.81480000  0.14600000  0.61510000  1.0 1.492432111
P  P10  1  0.14600000  0.81480000  0.88490000  1.0 1.492432111
P  P11  1  0.18520000  0.85400000  0.38490000  1.0 1.492432111
P  P12  1  0.85400000  0.18520000  0.11510000  1.0 1.492432111
H  H1  1  0.26000000  0.82000000  0.79000000  1.0 0.350662441
H  H2  1  0.82000000  0.26000000  0.71000000  1.0 0.350662441
H  H3  1  0.74000000  0.18000000  0.21000000  1.0 0.350662441
H  H4  1  0.18000000  0.74000000  0.29000000  1.0 0.350662441
O  O1  1  0.20110000  0.42730000  0.40060000  1.0 -0.6221890663
O  O2  1  0.42730000  0.20110000  0.09940000  1.0 -0.6221890663
O  O3  1  0.79890000  0.57270000  0.59940000  1.0 -0.6221890663
O  O4  1  0.57270000  0.79890000  0.90060000  1.0 -0.6221890663
O  O5  1  0.95130000  0.18830000  0.43340000  1.0 -0.6406787807
O  O6  1  0.18830000  0.95130000  0.06660000  1.0 -0.6406787807
O  O7  1  0.04870000  0.81170000  0.56660000  1.0 -0.6406787807
O  O8  1  0.81170000  0.04870000  0.93340000  1.0 -0.6406787807
O  O9  1  0.18920000  0.17400000  0.42830000  1.0 -0.6406787807
O  O10  1  0.17400000  0.18920000  0.07170000  1.0 -0.6406787807
O  O11  1  0.81080000  0.82600000  0.57170000  1.0 -0.6406787807
O  O12  1  0.82600000  0.81080000  0.92830000  1.0 -0.6406787807
O  O13  1  0.03130000  0.22730000  0.31690000  1.0 -0.6087098335
O  O14  1  0.22730000  0.03130000  0.18310000  1.0 -0.6087098335
O  O15  1  0.96870000  0.77270000  0.68310000  1.0 -0.6087098335
O  O16  1  0.77270000  0.96870000  0.81690000  1.0 -0.6087098335
O  O17  1  0.78960000  0.09440000  0.54620000  1.0 -0.6303356652
O  O18  1  0.09440000  0.78960000  0.95380000  1.0 -0.6303356652
O  O19  1  0.21040000  0.90560000  0.45380000  1.0 -0.6303356652
O  O20  1  0.90560000  0.21040000  0.04620000  1.0 -0.6303356652
O  O21  1  0.65100000  0.89380000  0.44490000  1.0 -0.6602446948
O  O22  1  0.89380000  0.65100000  0.05510000  1.0 -0.6602446948
O  O23  1  0.34900000  0.10620000  0.55510000  1.0 -0.6602446948
O  O24  1  0.10620000  0.34900000  0.94490000  1.0 -0.6602446948
O  O25  1  0.71490000  0.00590000  0.66720000  1.0 -0.6303356652
O  O26  1  0.00590000  0.71490000  0.83280000  1.0 -0.6303356652
O  O27  1  0.28510000  0.99410000  0.33280000  1.0 -0.6303356652
O  O28  1  0.99410000  0.28510000  0.16720000  1.0 -0.6303356652
O  O29  1  0.54420000  0.98960000  0.32890000  1.0 -0.6406787807
O  O30  1  0.98960000  0.54420000  0.17110000  1.0 -0.6406787807
O  O31  1  0.45580000  0.01040000  0.67110000  1.0 -0.646214432
O  O32  1  0.01040000  0.45580000  0.82890000  1.0 -0.6406787807
O  O33  1  0.71990000  0.88610000  0.33250000  1.0 -0.4576613372
O  O34  1  0.88610000  0.71990000  0.16750000  1.0 -0.4533223575
O  O35  1  0.28010000  0.11390000  0.66750000  1.0 -0.4533223575
O  O36  1  0.11390000  0.28010000  0.83250000  1.0 -0.4533223575
O  O37  1  0.45250000  0.70210000  0.36160000  1.0 -0.6882303422
O  O38  1  0.70210000  0.45250000  0.13840000  1.0 -0.6882303422
O  O39  1  0.54750000  0.29790000  0.63840000  1.0 -0.6882303422
O  O40  1  0.29790000  0.54750000  0.86160000  1.0 -0.6882303422
O  O41  1  0.78980000  0.28700000  0.59930000  1.0 -0.6835447813
O  O42  1  0.28700000  0.78980000  0.90070000  1.0 -0.6835447813
O  O43  1  0.21020000  0.71300000  0.40070000  1.0 -0.6882303422
O  O44  1  0.71300000  0.21020000  0.09930000  1.0 -0.6835447813
O  O45  1  0.98960000  0.20900000  0.64980000  1.0 -0.4369003738
O  O46  1  0.20900000  0.98960000  0.85020000  1.0 -0.4369003738
O  O47  1  0.01040000  0.79100000  0.35020000  1.0 -0.4369003738
O  O48  1  0.79100000  0.01040000  0.14980000  1.0 -0.4348254269
O  O49  1  0.24540000  0.77240000  0.26150000  1.0 -0.7095866715
O  O50  1  0.77240000  0.24540000  0.23850000  1.0 -0.7095866715
O  O51  1  0.75460000  0.22760000  0.73850000  1.0 -0.7095866715
O  O52  1  0.22760000  0.75460000  0.76150000  1.0 -0.7095866715
F  F1  1  0.06900000  0.08560000  0.55010000  1.0 -0.3792888438
F  F2  1  0.08560000  0.06900000  0.94990000  1.0 -0.3792888438
F  F3  1  0.93100000  0.91440000  0.44990000  1.0 -0.3792888438
F  F4  1  0.91440000  0.93100000  0.05010000  1.0 -0.3792888438
F  F5  1  0.21650000  0.50810000  0.26030000  1.0 -0.3505715792
F  F6  1  0.50810000  0.21650000  0.23970000  1.0 -0.3505715792
F  F7  1  0.78350000  0.49190000  0.73970000  1.0 -0.3505715792
F  F8  1  0.49190000  0.78350000  0.76030000  1.0 -0.3505715792
F  F9  1  0.00210000  0.49090000  0.30910000  1.0 -0.3792888438
F  F10  1  0.49090000  0.00210000  0.19090000  1.0 -0.3792888438
F  F11  1  0.99790000  0.50910000  0.69090000  1.0 -0.3792888438
F  F12  1  0.50910000  0.99790000  0.80910000  1.0 -0.3792888438
