# DDEC6 charges by PACMAN v1.1 (https://github.com/mtap-research/PACMAN-charge/)
data_YAHWAI_ASR_pacman
_symmetry_space_group_name_H-M   'P 1'
_cell_length_a   18.60210000
_cell_length_b   18.60210000
_cell_length_c   30.42400000
_cell_angle_alpha   80.29190000
_cell_angle_beta   99.70810000
_cell_angle_gamma   132.29100000
_symmetry_Int_Tables_number   1
_chemical_formula_structural   ZnH6C9I2N3
_chemical_formula_sum   'Zn16 H96 C144 I32 N48'
_cell_volume   7654.32706321
_cell_formula_units_Z   16
loop_
 _symmetry_equiv_pos_site_id
 _symmetry_equiv_pos_as_xyz
  1  'x, y, z'
loop_
 _atom_site_type_symbol
 _atom_site_label
 _atom_site_symmetry_multiplicity
 _atom_site_fract_x
 _atom_site_fract_y
 _atom_site_fract_z
 _atom_site_occupancy
 _atom_site_charge
Zn  Zn1  1  0.45726000  0.29294000  0.59429000  1.0 0.4574859725
Zn  Zn2  1  0.70706000  0.54274000  0.09429000  1.0 0.4574859725
Zn  Zn3  1  0.77170000  0.03250000  0.94370000  1.0 0.2096902789
Zn  Zn4  1  0.96750000  0.22830000  0.44370000  1.0 0.2096902789
Zn  Zn5  1  0.31937000  0.96603000  0.77457000  1.0 0.4416380809
Zn  Zn6  1  0.03397000  0.68063000  0.27457000  1.0 0.4416380809
Zn  Zn7  1  0.77320000  0.04500000  0.95980000  1.0 0.1496463404
Zn  Zn8  1  0.95500000  0.22680000  0.45980000  1.0 0.1496463404
Zn  Zn9  1  0.29294000  0.45726000  0.90571000  1.0 0.4574859725
Zn  Zn10  1  0.54274000  0.70706000  0.40571000  1.0 0.4574859725
Zn  Zn11  1  0.03250000  0.77170000  0.55630000  1.0 0.2096902789
Zn  Zn12  1  0.22830000  0.96750000  0.05630000  1.0 0.2096902789
Zn  Zn13  1  0.96603000  0.31937000  0.72543000  1.0 0.4416380809
Zn  Zn14  1  0.68063000  0.03397000  0.22543000  1.0 0.4416380809
Zn  Zn15  1  0.04500000  0.77320000  0.54020000  1.0 0.1496463404
Zn  Zn16  1  0.22680000  0.95500000  0.04020000  1.0 0.1496463404
H  H1  1  0.65600000  0.46960000  0.62730000  1.0 0.0792943859
H  H2  1  0.53040000  0.34400000  0.12730000  1.0 0.0792943859
H  H3  1  0.77260000  0.51500000  0.68550000  1.0 0.1200454073
H  H4  1  0.48500000  0.22740000  0.18550000  1.0 0.1200454073
H  H5  1  0.62380000  0.23020000  0.72140000  1.0 0.1311854514
H  H6  1  0.76980000  0.37620000  0.22140000  1.0 0.1311854514
H  H7  1  0.51140000  0.19340000  0.66170000  1.0 0.102455919
H  H8  1  0.80660000  0.48860000  0.16170000  1.0 0.102455919
H  H9  1  0.97570000  0.67490000  0.73120000  1.0 0.1311854514
H  H10  1  0.32510000  0.02430000  0.23120000  1.0 0.1311854514
H  H11  1  0.11980000  0.83420000  0.72890000  1.0 0.102455919
H  H12  1  0.16580000  0.88020000  0.22890000  1.0 0.102455919
H  H13  1  0.23840000  0.77660000  0.83060000  1.0 0.102455919
H  H14  1  0.22340000  0.76160000  0.33060000  1.0 0.102455919
H  H15  1  0.09610000  0.61530000  0.83690000  1.0 0.1373792426
H  H16  1  0.38470000  0.90390000  0.33690000  1.0 0.1373792426
H  H17  1  0.94820000  0.37840000  0.88360000  1.0 0.1311854514
H  H18  1  0.62160000  0.05180000  0.38360000  1.0 0.1311854514
H  H19  1  0.91590000  0.25410000  0.93430000  1.0 0.0880203368
H  H20  1  0.74590000  0.08410000  0.43430000  1.0 0.0880203368
H  H21  1  0.67920000  0.05680000  0.86220000  1.0 0.0792943859
H  H22  1  0.94320000  0.32080000  0.36220000  1.0 0.0792943859
H  H23  1  0.69910000  0.17410000  0.81180000  1.0 0.1200454073
H  H24  1  0.82590000  0.30090000  0.31180000  1.0 0.1200454073
H  H25  1  0.53020000  0.49960000  0.57010000  1.0 0.102455919
H  H26  1  0.50040000  0.46980000  0.07010000  1.0 0.102455919
H  H27  1  0.64900000  0.63980000  0.52650000  1.0 0.1373792426
H  H28  1  0.36020000  0.35100000  0.02650000  1.0 0.1373792426
H  H29  1  0.68690000  0.48390000  0.47490000  1.0 0.1373792426
H  H30  1  0.51610000  0.31310000  0.97490000  1.0 0.1373792426
H  H31  1  0.57070000  0.34910000  0.52040000  1.0 0.102455919
H  H32  1  0.65090000  0.42930000  0.02040000  1.0 0.102455919
H  H33  1  0.85970000  0.58870000  0.40830000  1.0 0.1311854514
H  H34  1  0.41130000  0.14030000  0.90830000  1.0 0.1311854514
H  H35  1  0.92290000  0.57230000  0.35750000  1.0 0.102455919
H  H36  1  0.42770000  0.07710000  0.85750000  1.0 0.102455919
H  H37  1  0.02880000  0.82500000  0.29650000  1.0 0.102455919
H  H38  1  0.17500000  0.97120000  0.79650000  1.0 0.102455919
H  H39  1  0.96620000  0.85020000  0.34530000  1.0 0.1311854514
H  H40  1  0.14980000  0.03380000  0.84530000  1.0 0.1311854514
H  H41  1  0.91280000  0.96820000  0.38430000  1.0 0.1373792426
H  H42  1  0.03180000  0.08720000  0.88430000  1.0 0.1373792426
H  H43  1  0.95560000  0.11600000  0.39090000  1.0 0.0880203368
H  H44  1  0.88400000  0.04440000  0.89090000  1.0 0.0880203368
H  H45  1  0.88870000  0.04730000  0.51390000  1.0 0.0792943859
H  H46  1  0.95270000  0.11130000  0.01390000  1.0 0.0792943859
H  H47  1  0.84670000  0.89810000  0.51170000  1.0 0.1311854514
H  H48  1  0.10190000  0.15330000  0.01170000  1.0 0.1311854514
H  H49  1  0.46960000  0.65600000  0.87270000  1.0 0.0792943859
H  H50  1  0.34400000  0.53040000  0.37270000  1.0 0.0792943859
H  H51  1  0.51500000  0.77260000  0.81450000  1.0 0.1200454073
H  H52  1  0.22740000  0.48500000  0.31450000  1.0 0.1200454073
H  H53  1  0.23020000  0.62380000  0.77860000  1.0 0.1311854514
H  H54  1  0.37620000  0.76980000  0.27860000  1.0 0.1311854514
H  H55  1  0.19340000  0.51140000  0.83830000  1.0 0.102455919
H  H56  1  0.48860000  0.80660000  0.33830000  1.0 0.102455919
H  H57  1  0.67490000  0.97570000  0.76880000  1.0 0.1311854514
H  H58  1  0.02430000  0.32510000  0.26880000  1.0 0.1311854514
H  H59  1  0.83420000  0.11980000  0.77110000  1.0 0.102455919
H  H60  1  0.88020000  0.16580000  0.27110000  1.0 0.102455919
H  H61  1  0.77660000  0.23840000  0.66940000  1.0 0.102455919
H  H62  1  0.76160000  0.22340000  0.16940000  1.0 0.102455919
H  H63  1  0.61530000  0.09610000  0.66310000  1.0 0.1373792426
H  H64  1  0.90390000  0.38470000  0.16310000  1.0 0.1373792426
H  H65  1  0.37840000  0.94820000  0.61640000  1.0 0.1311854514
H  H66  1  0.05180000  0.62160000  0.11640000  1.0 0.1311854514
H  H67  1  0.25410000  0.91590000  0.56570000  1.0 0.0880203368
H  H68  1  0.08410000  0.74590000  0.06570000  1.0 0.0880203368
H  H69  1  0.05680000  0.67920000  0.63780000  1.0 0.0792943859
H  H70  1  0.32080000  0.94320000  0.13780000  1.0 0.0792943859
H  H71  1  0.17410000  0.69910000  0.68820000  1.0 0.1200454073
H  H72  1  0.30090000  0.82590000  0.18820000  1.0 0.1200454073
H  H73  1  0.49960000  0.53020000  0.92990000  1.0 0.102455919
H  H74  1  0.46980000  0.50040000  0.42990000  1.0 0.102455919
H  H75  1  0.63980000  0.64900000  0.97350000  1.0 0.1373792426
H  H76  1  0.35100000  0.36020000  0.47350000  1.0 0.1373792426
H  H77  1  0.48390000  0.68690000  0.02510000  1.0 0.1373792426
H  H78  1  0.31310000  0.51610000  0.52510000  1.0 0.1373792426
H  H79  1  0.34910000  0.57070000  0.97960000  1.0 0.102455919
H  H80  1  0.42930000  0.65090000  0.47960000  1.0 0.102455919
H  H81  1  0.58870000  0.85970000  0.09170000  1.0 0.1311854514
H  H82  1  0.14030000  0.41130000  0.59170000  1.0 0.1311854514
H  H83  1  0.57230000  0.92290000  0.14250000  1.0 0.102455919
H  H84  1  0.07710000  0.42770000  0.64250000  1.0 0.102455919
H  H85  1  0.82500000  0.02880000  0.20350000  1.0 0.102455919
H  H86  1  0.97120000  0.17500000  0.70350000  1.0 0.102455919
H  H87  1  0.85020000  0.96620000  0.15470000  1.0 0.1311854514
H  H88  1  0.03380000  0.14980000  0.65470000  1.0 0.1311854514
H  H89  1  0.96820000  0.91280000  0.11570000  1.0 0.1373792426
H  H90  1  0.08720000  0.03180000  0.61570000  1.0 0.1373792426
H  H91  1  0.11600000  0.95560000  0.10910000  1.0 0.0880203368
H  H92  1  0.04440000  0.88400000  0.60910000  1.0 0.0880203368
H  H93  1  0.04730000  0.88870000  0.98610000  1.0 0.0792943859
H  H94  1  0.11130000  0.95270000  0.48610000  1.0 0.0792943859
H  H95  1  0.89810000  0.84670000  0.98830000  1.0 0.1311854514
H  H96  1  0.15330000  0.10190000  0.48830000  1.0 0.1311854514
C  C1  1  0.64870000  0.42010000  0.64720000  1.0 0.0597123174
C  C2  1  0.57990000  0.35130000  0.14720000  1.0 0.0597123174
C  C3  1  0.71890000  0.44790000  0.68170000  1.0 -0.1515345636
C  C4  1  0.55210000  0.28110000  0.18170000  1.0 -0.1515345636
C  C5  1  0.71100000  0.37800000  0.71060000  1.0 0.0597123174
C  C6  1  0.62200000  0.28900000  0.21060000  1.0 0.0597123174
C  C7  1  0.63170000  0.28110000  0.70260000  1.0 -0.1515345636
C  C8  1  0.71890000  0.36830000  0.20260000  1.0 -0.1515345636
C  C9  1  0.56470000  0.25990000  0.66710000  1.0 0.0880203368
C  C10  1  0.74010000  0.43530000  0.16710000  1.0 0.0880203368
C  C11  1  0.78390000  0.40490000  0.74790000  1.0 0.3611618844
C  C12  1  0.59510000  0.21610000  0.24790000  1.0 0.3611618844
C  C13  1  0.92830000  0.52250000  0.78470000  1.0 0.3611618844
C  C14  1  0.47750000  0.07170000  0.28470000  1.0 0.3611618844
C  C15  1  0.84220000  0.36620000  0.80930000  1.0 0.3611618844
C  C16  1  0.63380000  0.15780000  0.30930000  1.0 0.3611618844
C  C17  1  0.01990000  0.62670000  0.78410000  1.0 0.0597123174
C  C18  1  0.37330000  0.98010000  0.28410000  1.0 0.0597123174
C  C19  1  0.02880000  0.69400000  0.75220000  1.0 -0.1515345636
C  C20  1  0.30600000  0.97120000  0.25220000  1.0 -0.1515345636
C  C21  1  0.11510000  0.78890000  0.75110000  1.0 0.0670613596
C  C22  1  0.21110000  0.88490000  0.25110000  1.0 0.0670613596
C  C23  1  0.18370000  0.75550000  0.81030000  1.0 0.0670613596
C  C24  1  0.24450000  0.81630000  0.31030000  1.0 0.0670613596
C  C25  1  0.09950000  0.65910000  0.81410000  1.0 -0.1610442143
C  C26  1  0.34090000  0.90050000  0.31410000  1.0 -0.1610442143
C  C27  1  0.82640000  0.28920000  0.84260000  1.0 0.0508357256
C  C28  1  0.71080000  0.17360000  0.34260000  1.0 0.0508357256
C  C29  1  0.89150000  0.31250000  0.87890000  1.0 -0.1345685976
C  C30  1  0.68750000  0.10850000  0.37890000  1.0 -0.1345685976
C  C31  1  0.87250000  0.23790000  0.90840000  1.0 0.0508357256
C  C32  1  0.76210000  0.12750000  0.40840000  1.0 0.0508357256
C  C33  1  0.73420000  0.12320000  0.86680000  1.0 0.0375224031
C  C34  1  0.87680000  0.26580000  0.36680000  1.0 0.0375224031
C  C35  1  0.74560000  0.19200000  0.83660000  1.0 -0.1515345636
C  C36  1  0.80800000  0.25440000  0.33660000  1.0 -0.1515345636
C  C37  1  0.56320000  0.49660000  0.55080000  1.0 0.0508357256
C  C38  1  0.50340000  0.43680000  0.05080000  1.0 0.0508357256
C  C39  1  0.63420000  0.58060000  0.52480000  1.0 -0.1515345636
C  C40  1  0.41940000  0.36580000  0.02480000  1.0 -0.1515345636
C  C41  1  0.68110000  0.57710000  0.49780000  1.0 0.0508357256
C  C42  1  0.42290000  0.31890000  0.99780000  1.0 0.0508357256
C  C43  1  0.65660000  0.48920000  0.49480000  1.0 -0.1610442143
C  C44  1  0.51080000  0.34340000  0.99480000  1.0 -0.1610442143
C  C45  1  0.58640000  0.40900000  0.52170000  1.0 0.0880203368
C  C46  1  0.59100000  0.41360000  0.02170000  1.0 0.0880203368
C  C47  1  0.75810000  0.66490000  0.46960000  1.0 0.3661469208
C  C48  1  0.33510000  0.24190000  0.96960000  1.0 0.3661469208
C  C49  1  0.85970000  0.73050000  0.41420000  1.0 0.3450774537
C  C50  1  0.26950000  0.14030000  0.91420000  1.0 0.3450774537
C  C51  1  0.85050000  0.82310000  0.44710000  1.0 0.3611618844
C  C52  1  0.17690000  0.14950000  0.94710000  1.0 0.3611618844
C  C53  1  0.90000000  0.71780000  0.38170000  1.0 0.0508357256
C  C54  1  0.28220000  0.10000000  0.88170000  1.0 0.0508357256
C  C55  1  0.89260000  0.63800000  0.38470000  1.0 -0.1610442143
C  C56  1  0.36200000  0.10740000  0.88470000  1.0 -0.1610442143
C  C57  1  0.93110000  0.62890000  0.35490000  1.0 0.0670613596
C  C58  1  0.37110000  0.06890000  0.85490000  1.0 0.0670613596
C  C59  1  0.99210000  0.77570000  0.31960000  1.0 0.0792943859
C  C60  1  0.22430000  0.00790000  0.81960000  1.0 0.0792943859
C  C61  1  0.95510000  0.79170000  0.34810000  1.0 -0.1610442143
C  C62  1  0.20830000  0.04490000  0.84810000  1.0 -0.1610442143
C  C63  1  0.87750000  0.91730000  0.45050000  1.0 0.0508357256
C  C64  1  0.08270000  0.12250000  0.95050000  1.0 0.0508357256
C  C65  1  0.90870000  0.98290000  0.41170000  1.0 -0.1515345636
C  C66  1  0.01710000  0.09130000  0.91170000  1.0 -0.1515345636
C  C67  1  0.93310000  0.07070000  0.41640000  1.0 0.0880203368
C  C68  1  0.92930000  0.06690000  0.91640000  1.0 0.0880203368
C  C69  1  0.89510000  0.03170000  0.48740000  1.0 0.0375224031
C  C70  1  0.96830000  0.10490000  0.98740000  1.0 0.0375224031
C  C71  1  0.87010000  0.94250000  0.48580000  1.0 -0.1345685976
C  C72  1  0.05750000  0.12990000  0.98580000  1.0 -0.1345685976
C  C73  1  0.42010000  0.64870000  0.85280000  1.0 0.0597123174
C  C74  1  0.35130000  0.57990000  0.35280000  1.0 0.0597123174
C  C75  1  0.44790000  0.71890000  0.81830000  1.0 -0.1515345636
C  C76  1  0.28110000  0.55210000  0.31830000  1.0 -0.1515345636
C  C77  1  0.37800000  0.71100000  0.78940000  1.0 0.0597123174
C  C78  1  0.28900000  0.62200000  0.28940000  1.0 0.0597123174
C  C79  1  0.28110000  0.63170000  0.79740000  1.0 -0.1515345636
C  C80  1  0.36830000  0.71890000  0.29740000  1.0 -0.1515345636
C  C81  1  0.25990000  0.56470000  0.83290000  1.0 0.0880203368
C  C82  1  0.43530000  0.74010000  0.33290000  1.0 0.0880203368
C  C83  1  0.40490000  0.78390000  0.75210000  1.0 0.3611618844
C  C84  1  0.21610000  0.59510000  0.25210000  1.0 0.3611618844
C  C85  1  0.52250000  0.92830000  0.71530000  1.0 0.3611618844
C  C86  1  0.07170000  0.47750000  0.21530000  1.0 0.3611618844
C  C87  1  0.36620000  0.84220000  0.69070000  1.0 0.3611618844
C  C88  1  0.15780000  0.63380000  0.19070000  1.0 0.3611618844
C  C89  1  0.62670000  0.01990000  0.71590000  1.0 0.0597123174
C  C90  1  0.98010000  0.37330000  0.21590000  1.0 0.0597123174
C  C91  1  0.69400000  0.02880000  0.74780000  1.0 -0.1515345636
C  C92  1  0.97120000  0.30600000  0.24780000  1.0 -0.1515345636
C  C93  1  0.78890000  0.11510000  0.74890000  1.0 0.0670613596
C  C94  1  0.88490000  0.21110000  0.24890000  1.0 0.0670613596
C  C95  1  0.75550000  0.18370000  0.68970000  1.0 0.0670613596
C  C96  1  0.81630000  0.24450000  0.18970000  1.0 0.0670613596
C  C97  1  0.65910000  0.09950000  0.68590000  1.0 -0.1610442143
C  C98  1  0.90050000  0.34090000  0.18590000  1.0 -0.1610442143
C  C99  1  0.28920000  0.82640000  0.65740000  1.0 0.0508357256
C  C100  1  0.17360000  0.71080000  0.15740000  1.0 0.0508357256
C  C101  1  0.31250000  0.89150000  0.62110000  1.0 -0.1345685976
C  C102  1  0.10850000  0.68750000  0.12110000  1.0 -0.1345685976
C  C103  1  0.23790000  0.87250000  0.59160000  1.0 0.0508357256
C  C104  1  0.12750000  0.76210000  0.09160000  1.0 0.0508357256
C  C105  1  0.12320000  0.73420000  0.63320000  1.0 0.0375224031
C  C106  1  0.26580000  0.87680000  0.13320000  1.0 0.0375224031
C  C107  1  0.19200000  0.74560000  0.66340000  1.0 -0.1515345636
C  C108  1  0.25440000  0.80800000  0.16340000  1.0 -0.1515345636
C  C109  1  0.49660000  0.56320000  0.94920000  1.0 0.0508357256
C  C110  1  0.43680000  0.50340000  0.44920000  1.0 0.0508357256
C  C111  1  0.58060000  0.63420000  0.97520000  1.0 -0.1515345636
C  C112  1  0.36580000  0.41940000  0.47520000  1.0 -0.1515345636
C  C113  1  0.57710000  0.68110000  0.00220000  1.0 0.0508357256
C  C114  1  0.31890000  0.42290000  0.50220000  1.0 0.0508357256
C  C115  1  0.48920000  0.65660000  0.00520000  1.0 -0.1610442143
C  C116  1  0.34340000  0.51080000  0.50520000  1.0 -0.1610442143
C  C117  1  0.40900000  0.58640000  0.97830000  1.0 0.0880203368
C  C118  1  0.41360000  0.59100000  0.47830000  1.0 0.0880203368
C  C119  1  0.66490000  0.75810000  0.03040000  1.0 0.3661469208
C  C120  1  0.24190000  0.33510000  0.53040000  1.0 0.3661469208
C  C121  1  0.73050000  0.85970000  0.08580000  1.0 0.3450774537
C  C122  1  0.14030000  0.26950000  0.58580000  1.0 0.3450774537
C  C123  1  0.82310000  0.85050000  0.05290000  1.0 0.3611618844
C  C124  1  0.14950000  0.17690000  0.55290000  1.0 0.3611618844
C  C125  1  0.71780000  0.90000000  0.11830000  1.0 0.0508357256
C  C126  1  0.10000000  0.28220000  0.61830000  1.0 0.0508357256
C  C127  1  0.63800000  0.89260000  0.11530000  1.0 -0.1610442143
C  C128  1  0.10740000  0.36200000  0.61530000  1.0 -0.1610442143
C  C129  1  0.62890000  0.93110000  0.14510000  1.0 0.0670613596
C  C130  1  0.06890000  0.37110000  0.64510000  1.0 0.0670613596
C  C131  1  0.77570000  0.99210000  0.18040000  1.0 0.0792943859
C  C132  1  0.00790000  0.22430000  0.68040000  1.0 0.0792943859
C  C133  1  0.79170000  0.95510000  0.15190000  1.0 -0.1610442143
C  C134  1  0.04490000  0.20830000  0.65190000  1.0 -0.1610442143
C  C135  1  0.91730000  0.87750000  0.04950000  1.0 0.0508357256
C  C136  1  0.12250000  0.08270000  0.54950000  1.0 0.0508357256
C  C137  1  0.98290000  0.90870000  0.08830000  1.0 -0.1515345636
C  C138  1  0.09130000  0.01710000  0.58830000  1.0 -0.1515345636
C  C139  1  0.07070000  0.93310000  0.08360000  1.0 0.0880203368
C  C140  1  0.06690000  0.92930000  0.58360000  1.0 0.0880203368
C  C141  1  0.03170000  0.89510000  0.01260000  1.0 0.0375224031
C  C142  1  0.10490000  0.96830000  0.51260000  1.0 0.0375224031
C  C143  1  0.94250000  0.87010000  0.01420000  1.0 -0.1345685976
C  C144  1  0.12990000  0.05750000  0.51420000  1.0 -0.1345685976
I  I1  1  0.38407000  0.14301000  0.55685000  1.0 -0.4393152496
I  I2  1  0.85699000  0.61593000  0.05685000  1.0 -0.4393152496
I  I3  1  0.36730000  0.31516000  0.63594000  1.0 -0.4393152496
I  I4  1  0.68484000  0.63270000  0.13594000  1.0 -0.4393152496
I  I5  1  0.65166000  0.87326000  0.90604000  1.0 0.0375224031
I  I6  1  0.12674000  0.34834000  0.40604000  1.0 0.0375224031
I  I7  1  0.74866000  0.06114000  0.01679000  1.0 -0.0859780958
I  I8  1  0.93886000  0.25134000  0.51679000  1.0 -0.0859780958
I  I9  1  0.46779000  0.98649000  0.80374000  1.0 -0.4393152496
I  I10  1  0.01351000  0.53221000  0.30374000  1.0 -0.4393152496
I  I11  1  0.30456000  0.03448000  0.69717000  1.0 -0.4393152496
I  I12  1  0.96552000  0.69544000  0.19717000  1.0 -0.4393152496
I  I13  1  0.64110000  0.88190000  0.92620000  1.0 -0.0285080825
I  I14  1  0.11810000  0.35890000  0.42620000  1.0 -0.0285080825
I  I15  1  0.77900000  0.09640000  0.03190000  1.0 -0.0192098817
I  I16  1  0.90360000  0.22100000  0.53190000  1.0 -0.0192098817
I  I17  1  0.14301000  0.38407000  0.94315000  1.0 -0.4393152496
I  I18  1  0.61593000  0.85699000  0.44315000  1.0 -0.4393152496
I  I19  1  0.31516000  0.36730000  0.86406000  1.0 -0.4393152496
I  I20  1  0.63270000  0.68484000  0.36406000  1.0 -0.4393152496
I  I21  1  0.87326000  0.65166000  0.59396000  1.0 0.0375224031
I  I22  1  0.34834000  0.12674000  0.09396000  1.0 0.0375224031
I  I23  1  0.06114000  0.74866000  0.48321000  1.0 -0.0859780958
I  I24  1  0.25134000  0.93886000  0.98321000  1.0 -0.0859780958
I  I25  1  0.98649000  0.46779000  0.69626000  1.0 -0.4393152496
I  I26  1  0.53221000  0.01351000  0.19626000  1.0 -0.4393152496
I  I27  1  0.03448000  0.30456000  0.80283000  1.0 -0.4393152496
I  I28  1  0.69544000  0.96552000  0.30283000  1.0 -0.4393152496
I  I29  1  0.88190000  0.64110000  0.57380000  1.0 -0.0285080825
I  I30  1  0.35890000  0.11810000  0.07380000  1.0 -0.0285080825
I  I31  1  0.09640000  0.77900000  0.46810000  1.0 -0.0192098817
I  I32  1  0.22100000  0.90360000  0.96810000  1.0 -0.0192098817
N  N1  1  0.57078000  0.32722000  0.64033000  1.0 -0.1806666343
N  N2  1  0.67278000  0.42922000  0.14033000  1.0 -0.1806666343
N  N3  1  0.85997000  0.50123000  0.75110000  1.0 -0.4039665548
N  N4  1  0.49877000  0.14003000  0.25110000  1.0 -0.4039665548
N  N5  1  0.92267000  0.45893000  0.81460000  1.0 -0.3912540688
N  N6  1  0.54107000  0.07733000  0.31460000  1.0 -0.3912540688
N  N7  1  0.77156000  0.33504000  0.77570000  1.0 -0.3912540688
N  N8  1  0.66496000  0.22844000  0.27570000  1.0 -0.3912540688
N  N9  1  0.19280000  0.82140000  0.77940000  1.0 -0.1900855502
N  N10  1  0.17860000  0.80720000  0.27940000  1.0 -0.1900855502
N  N11  1  0.79570000  0.14310000  0.90260000  1.0 -0.1806666343
N  N12  1  0.85690000  0.20430000  0.40260000  1.0 -0.1806666343
N  N13  1  0.54120000  0.41180000  0.54860000  1.0 -0.1959526552
N  N14  1  0.58820000  0.45880000  0.04860000  1.0 -0.1959526552
N  N15  1  0.79280000  0.65040000  0.44050000  1.0 -0.4159820093
N  N16  1  0.34960000  0.20720000  0.94050000  1.0 -0.4159820093
N  N17  1  0.88840000  0.81760000  0.41640000  1.0 -0.4039665548
N  N18  1  0.18240000  0.11160000  0.91640000  1.0 -0.4039665548
N  N19  1  0.78480000  0.74860000  0.47560000  1.0 -0.4159820093
N  N20  1  0.25140000  0.21520000  0.97560000  1.0 -0.4159820093
N  N21  1  0.98060000  0.69740000  0.32170000  1.0 -0.1900855502
N  N22  1  0.30260000  0.01940000  0.82170000  1.0 -0.1900855502
N  N23  1  0.92840000  0.09560000  0.45060000  1.0 -0.1900855502
N  N24  1  0.90440000  0.07160000  0.95060000  1.0 -0.1900855502
N  N25  1  0.32722000  0.57078000  0.85967000  1.0 -0.1806666343
N  N26  1  0.42922000  0.67278000  0.35967000  1.0 -0.1806666343
N  N27  1  0.50123000  0.85997000  0.74890000  1.0 -0.4039665548
N  N28  1  0.14003000  0.49877000  0.24890000  1.0 -0.4039665548
N  N29  1  0.45893000  0.92267000  0.68540000  1.0 -0.3912540688
N  N30  1  0.07733000  0.54107000  0.18540000  1.0 -0.3912540688
N  N31  1  0.33504000  0.77156000  0.72430000  1.0 -0.3912540688
N  N32  1  0.22844000  0.66496000  0.22430000  1.0 -0.3912540688
N  N33  1  0.82140000  0.19280000  0.72060000  1.0 -0.1900855502
N  N34  1  0.80720000  0.17860000  0.22060000  1.0 -0.1900855502
N  N35  1  0.14310000  0.79570000  0.59740000  1.0 -0.1806666343
N  N36  1  0.20430000  0.85690000  0.09740000  1.0 -0.1806666343
N  N37  1  0.41180000  0.54120000  0.95140000  1.0 -0.1959526552
N  N38  1  0.45880000  0.58820000  0.45140000  1.0 -0.1959526552
N  N39  1  0.65040000  0.79280000  0.05950000  1.0 -0.4159820093
N  N40  1  0.20720000  0.34960000  0.55950000  1.0 -0.4159820093
N  N41  1  0.81760000  0.88840000  0.08360000  1.0 -0.4039665548
N  N42  1  0.11160000  0.18240000  0.58360000  1.0 -0.4039665548
N  N43  1  0.74860000  0.78480000  0.02440000  1.0 -0.4159820093
N  N44  1  0.21520000  0.25140000  0.52440000  1.0 -0.4159820093
N  N45  1  0.69740000  0.98060000  0.17830000  1.0 -0.1900855502
N  N46  1  0.01940000  0.30260000  0.67830000  1.0 -0.1900855502
N  N47  1  0.09560000  0.92840000  0.04940000  1.0 -0.1900855502
N  N48  1  0.07160000  0.90440000  0.54940000  1.0 -0.1900855502
