# DDEC6 charges by PACMAN v1.1 (https://github.com/mtap-research/PACMAN-charge/)
data_YAJZIV_ASR_pacman
_symmetry_space_group_name_H-M   'P 1'
_cell_length_a   10.26150000
_cell_length_b   10.26150000
_cell_length_c   22.20270000
_cell_angle_alpha   70.01070000
_cell_angle_beta   109.98900000
_cell_angle_gamma   126.04400000
_symmetry_Int_Tables_number   1
_chemical_formula_structural   KDyH2C9SO9
_chemical_formula_sum   'K4 Dy4 H8 C36 S4 O36'
_cell_volume   1745.75161571
_cell_formula_units_Z   4
loop_
 _symmetry_equiv_pos_site_id
 _symmetry_equiv_pos_as_xyz
  1  'x, y, z'
loop_
 _atom_site_type_symbol
 _atom_site_label
 _atom_site_symmetry_multiplicity
 _atom_site_fract_x
 _atom_site_fract_y
 _atom_site_fract_z
 _atom_site_occupancy
 _atom_site_charge
K  K1  1  0.28966000  0.75274000  0.98604000  1.0 0.9134681297
K  K2  1  0.75274000  0.28966000  0.51396000  1.0 0.9134681297
K  K3  1  0.71034000  0.24726000  0.01396000  1.0 0.9134681297
K  K4  1  0.24726000  0.71034000  0.48604000  1.0 0.9134681297
Dy  Dy1  1  0.96309000  0.43311000  0.85859000  1.0 2.0075893673
Dy  Dy2  1  0.43311000  0.96309000  0.64141000  1.0 2.0075893673
Dy  Dy3  1  0.03691000  0.56689000  0.14141000  1.0 2.003555007
Dy  Dy4  1  0.56689000  0.03691000  0.35859000  1.0 2.0075893673
H  H1  1  0.80300000  0.89040000  0.98860000  1.0 0.1356075031
H  H2  1  0.89040000  0.80300000  0.51140000  1.0 0.1356075031
H  H3  1  0.19700000  0.10960000  0.01140000  1.0 0.1356075031
H  H4  1  0.10960000  0.19700000  0.48860000  1.0 0.1356075031
H  H5  1  0.73140000  0.73280000  0.80060000  1.0 0.1324707938
H  H6  1  0.73280000  0.73140000  0.69940000  1.0 0.1324707938
H  H7  1  0.26860000  0.26720000  0.19940000  1.0 0.1324707938
H  H8  1  0.26720000  0.26860000  0.30060000  1.0 0.1324707938
C  C1  1  0.70960000  0.90700000  0.89180000  1.0 -0.1061371791
C  C2  1  0.90700000  0.70960000  0.60820000  1.0 -0.1061371791
C  C3  1  0.29040000  0.09300000  0.10820000  1.0 -0.1061371791
C  C4  1  0.09300000  0.29040000  0.39180000  1.0 -0.1061371791
C  C5  1  0.92910000  0.70850000  0.01950000  1.0 0.5768068952
C  C6  1  0.70850000  0.92910000  0.48050000  1.0 0.5768068952
C  C7  1  0.07090000  0.29150000  0.98050000  1.0 0.5768068952
C  C8  1  0.29150000  0.07090000  0.51950000  1.0 0.5768068952
C  C9  1  0.85250000  0.76770000  0.95370000  1.0 -0.0479488598
C  C10  1  0.76770000  0.85250000  0.54630000  1.0 -0.0479488598
C  C11  1  0.14750000  0.23230000  0.04630000  1.0 -0.0479488598
C  C12  1  0.23230000  0.14750000  0.45370000  1.0 -0.0479488598
C  C13  1  0.68750000  0.86050000  0.83440000  1.0 0.0057402749
C  C14  1  0.86050000  0.68750000  0.66560000  1.0 0.0057402749
C  C15  1  0.31250000  0.13950000  0.16560000  1.0 0.0057402749
C  C16  1  0.13950000  0.31250000  0.33440000  1.0 0.0057402749
C  C17  1  0.83200000  0.72080000  0.89750000  1.0 -0.0126549433
C  C18  1  0.72080000  0.83200000  0.60250000  1.0 -0.0126549433
C  C19  1  0.16800000  0.27920000  0.10250000  1.0 -0.0126549433
C  C20  1  0.27920000  0.16800000  0.39750000  1.0 -0.0126549433
C  C21  1  0.78980000  0.85900000  0.94980000  1.0 -0.078632137
C  C22  1  0.85900000  0.78980000  0.55020000  1.0 -0.078632137
C  C23  1  0.21020000  0.14100000  0.05020000  1.0 -0.078632137
C  C24  1  0.14100000  0.21020000  0.44980000  1.0 -0.078632137
C  C25  1  0.88760000  0.61820000  0.89350000  1.0 0.5931864453
C  C26  1  0.61820000  0.88760000  0.60650000  1.0 0.5931864453
C  C27  1  0.11240000  0.38180000  0.10650000  1.0 0.5931864453
C  C28  1  0.38180000  0.11240000  0.39350000  1.0 0.5931864453
C  C29  1  0.74790000  0.76730000  0.83900000  1.0 -0.1246014426
C  C30  1  0.76730000  0.74790000  0.66100000  1.0 -0.1246014426
C  C31  1  0.25210000  0.23270000  0.16100000  1.0 -0.1246014426
C  C32  1  0.23270000  0.25210000  0.33900000  1.0 -0.1246014426
C  C33  1  0.60180000  0.90300000  0.76830000  1.0 0.5726135445
C  C34  1  0.90300000  0.60180000  0.73170000  1.0 0.5726135445
C  C35  1  0.39820000  0.09700000  0.23170000  1.0 0.5726135445
C  C36  1  0.09700000  0.39820000  0.26830000  1.0 0.5726135445
S  S1  1  0.61790000  0.00976000  0.89203000  1.0 1.2333793116
S  S2  1  0.00976000  0.61790000  0.60797000  1.0 1.2333793116
S  S3  1  0.38210000  0.99024000  0.10797000  1.0 1.2356693221
S  S4  1  0.99024000  0.38210000  0.39203000  1.0 1.2333793116
O  O1  1  0.97400000  0.61540000  0.02190000  1.0 -0.694780417
O  O2  1  0.61540000  0.97400000  0.47810000  1.0 -0.694780417
O  O3  1  0.02600000  0.38460000  0.97810000  1.0 -0.694780417
O  O4  1  0.38460000  0.02600000  0.52190000  1.0 -0.694780417
O  O5  1  0.61990000  0.99290000  0.95950000  1.0 -0.7019018161
O  O6  1  0.99290000  0.61990000  0.54050000  1.0 -0.7019018161
O  O7  1  0.38010000  0.00710000  0.04050000  1.0 -0.7019018161
O  O8  1  0.00710000  0.38010000  0.45950000  1.0 -0.7019018161
O  O9  1  0.65230000  0.05070000  0.74150000  1.0 -0.6140803027
O  O10  1  0.05070000  0.65230000  0.75850000  1.0 -0.6140803027
O  O11  1  0.34770000  0.94930000  0.25850000  1.0 -0.6140803027
O  O12  1  0.94930000  0.34770000  0.24150000  1.0 -0.6140803027
O  O13  1  0.78520000  0.46700000  0.89530000  1.0 -0.6289978998
O  O14  1  0.46700000  0.78520000  0.60470000  1.0 -0.6289978998
O  O15  1  0.21480000  0.53300000  0.10470000  1.0 -0.6289978998
O  O16  1  0.53300000  0.21480000  0.39530000  1.0 -0.6289978998
O  O17  1  0.94580000  0.75080000  0.06930000  1.0 -0.6173068213
O  O18  1  0.75080000  0.94580000  0.43070000  1.0 -0.6173068213
O  O19  1  0.05420000  0.24920000  0.93070000  1.0 -0.6173068213
O  O20  1  0.24920000  0.05420000  0.56930000  1.0 -0.6173068213
O  O21  1  0.48480000  0.78780000  0.73930000  1.0 -0.5980056601
O  O22  1  0.78780000  0.48480000  0.76070000  1.0 -0.5980056601
O  O23  1  0.51520000  0.21220000  0.26070000  1.0 -0.5980056601
O  O24  1  0.21220000  0.51520000  0.23930000  1.0 -0.5980056601
O  O25  1  0.71580000  0.18120000  0.86170000  1.0 -0.7177670525
O  O26  1  0.18120000  0.71580000  0.63830000  1.0 -0.7177670525
O  O27  1  0.28420000  0.81880000  0.13830000  1.0 -0.7177670525
O  O28  1  0.81880000  0.28420000  0.36170000  1.0 -0.7177670525
O  O29  1  0.02820000  0.68460000  0.88240000  1.0 -0.6494854616
O  O30  1  0.68460000  0.02820000  0.61760000  1.0 -0.6494854616
O  O31  1  0.97180000  0.31540000  0.11760000  1.0 -0.6494854616
O  O32  1  0.31540000  0.97180000  0.38240000  1.0 -0.6494854616
O  O33  1  0.45510000  0.92870000  0.85350000  1.0 -0.5781261849
O  O34  1  0.92870000  0.45510000  0.64650000  1.0 -0.5781261849
O  O35  1  0.54490000  0.07130000  0.14650000  1.0 -0.5781261849
O  O36  1  0.07130000  0.54490000  0.35350000  1.0 -0.5781261849
