# DDEC6 charges by PACMAN v1.1 (https://github.com/mtap-research/PACMAN-charge/)
data_YAPCOL_FSR_pacman
_symmetry_space_group_name_H-M   'P 1'
_cell_length_a   18.70340000
_cell_length_b   18.70340000
_cell_length_c   18.70340000
_cell_angle_alpha   126.77100000
_cell_angle_beta   126.77100000
_cell_angle_gamma   78.62460000
_symmetry_Int_Tables_number   1
_chemical_formula_structural   Cu4H24C28Kr9O16
_chemical_formula_sum   'Cu16 H96 C112 Kr36 O64'
_cell_volume   4063.72476548
_cell_formula_units_Z   4
loop_
 _symmetry_equiv_pos_site_id
 _symmetry_equiv_pos_as_xyz
  1  'x, y, z'
loop_
 _atom_site_type_symbol
 _atom_site_label
 _atom_site_symmetry_multiplicity
 _atom_site_fract_x
 _atom_site_fract_y
 _atom_site_fract_z
 _atom_site_occupancy
 _atom_site_charge
Cu  Cu1  1  0.56584000  0.86502000  0.70082000  1.0 0.7896020995
Cu  Cu2  1  0.16420000  0.86502000  0.29918000  1.0 0.7896020995
Cu  Cu3  1  0.61502000  0.41420000  0.79918000  1.0 0.7896020995
Cu  Cu4  1  0.61502000  0.81584000  0.20082000  1.0 0.7896020995
Cu  Cu5  1  0.58580000  0.38498000  0.20082000  1.0 0.7896020995
Cu  Cu6  1  0.18416000  0.38498000  0.79918000  1.0 0.7896020995
Cu  Cu7  1  0.13498000  0.83580000  0.70082000  1.0 0.7896020995
Cu  Cu8  1  0.13498000  0.43416000  0.29918000  1.0 0.7896020995
Cu  Cu9  1  0.61537000  0.26398000  0.64861000  1.0 0.6246601181
Cu  Cu10  1  0.61537000  0.96676000  0.35139000  1.0 0.6246601181
Cu  Cu11  1  0.01398000  0.86537000  0.14861000  1.0 0.6246601181
Cu  Cu12  1  0.71676000  0.86537000  0.85139000  1.0 0.6246601181
Cu  Cu13  1  0.13463000  0.98602000  0.85139000  1.0 0.6246601181
Cu  Cu14  1  0.13463000  0.28324000  0.14861000  1.0 0.6246601181
Cu  Cu15  1  0.03324000  0.38463000  0.64861000  1.0 0.6246601181
Cu  Cu16  1  0.73602000  0.38463000  0.35139000  1.0 0.6246601181
H  H1  1  0.41776000  0.43786000  0.52158000  1.0 0.1170025604
H  H2  1  0.42319000  0.34737000  0.42686000  1.0 0.1092122662
H  H3  1  0.41288000  0.58366000  0.54076000  1.0 0.1092122662
H  H4  1  0.55674000  0.57600000  0.69238000  1.0 0.1092122662
H  H5  1  0.64922000  0.57281000  0.70375000  1.0 0.1092122662
H  H6  1  0.56997000  0.34253000  0.44620000  1.0 0.1092122662
H  H7  1  0.91628000  0.89618000  0.47842000  1.0 0.1170025604
H  H8  1  0.92051000  0.99633000  0.57314000  1.0 0.1092122662
H  H9  1  0.04290000  0.87212000  0.45924000  1.0 0.1092122662
H  H10  1  0.88362000  0.86436000  0.30762000  1.0 0.1092122662
H  H11  1  0.86906000  0.94547000  0.29625000  1.0 0.1092122662
H  H12  1  0.89633000  0.12377000  0.55380000  1.0 0.1092122662
H  H13  1  0.18786000  0.16628000  0.52010000  1.0 0.1170025604
H  H14  1  0.09737000  0.17051000  0.42418000  1.0 0.1092122662
H  H15  1  0.33366000  0.29290000  0.67078000  1.0 0.1092122662
H  H16  1  0.32600000  0.13362000  0.51926000  1.0 0.1092122662
H  H17  1  0.32281000  0.11906000  0.42359000  1.0 0.1092122662
H  H18  1  0.09253000  0.14633000  0.27256000  1.0 0.1092122662
H  H19  1  0.64618000  0.66776000  0.47990000  1.0 0.1170025604
H  H20  1  0.74633000  0.67319000  0.57582000  1.0 0.1092122662
H  H21  1  0.62212000  0.66288000  0.32922000  1.0 0.1092122662
H  H22  1  0.61436000  0.80674000  0.48074000  1.0 0.1092122662
H  H23  1  0.69547000  0.89922000  0.57641000  1.0 0.1092122662
H  H24  1  0.87377000  0.81997000  0.72744000  1.0 0.1092122662
H  H25  1  0.83372000  0.81214000  0.47990000  1.0 0.1170025604
H  H26  1  0.82949000  0.90263000  0.57582000  1.0 0.1092122662
H  H27  1  0.70710000  0.66634000  0.32922000  1.0 0.1092122662
H  H28  1  0.86638000  0.67400000  0.48074000  1.0 0.1092122662
H  H29  1  0.88094000  0.67719000  0.57641000  1.0 0.1092122662
H  H30  1  0.85367000  0.90747000  0.72744000  1.0 0.1092122662
H  H31  1  0.33224000  0.35382000  0.52010000  1.0 0.1170025604
H  H32  1  0.32681000  0.25367000  0.42418000  1.0 0.1092122662
H  H33  1  0.33712000  0.37788000  0.67078000  1.0 0.1092122662
H  H34  1  0.19326000  0.38564000  0.51926000  1.0 0.1092122662
H  H35  1  0.10078000  0.30453000  0.42359000  1.0 0.1092122662
H  H36  1  0.18003000  0.12623000  0.27256000  1.0 0.1092122662
H  H37  1  0.10382000  0.08372000  0.52158000  1.0 0.1170025604
H  H38  1  0.00367000  0.07949000  0.42686000  1.0 0.1092122662
H  H39  1  0.12788000  0.95710000  0.54076000  1.0 0.1092122662
H  H40  1  0.13564000  0.11638000  0.69238000  1.0 0.1092122662
H  H41  1  0.05453000  0.13094000  0.70375000  1.0 0.1092122662
H  H42  1  0.87623000  0.10367000  0.44620000  1.0 0.1092122662
H  H43  1  0.56214000  0.58224000  0.47842000  1.0 0.1170025604
H  H44  1  0.65263000  0.57681000  0.57314000  1.0 0.1092122662
H  H45  1  0.41634000  0.58712000  0.45924000  1.0 0.1092122662
H  H46  1  0.42400000  0.44326000  0.30762000  1.0 0.1092122662
H  H47  1  0.42719000  0.35078000  0.29625000  1.0 0.1092122662
H  H48  1  0.65747000  0.43003000  0.55380000  1.0 0.1092122662
H  H49  1  0.33224000  0.81214000  0.97842000  1.0 0.1170025604
H  H50  1  0.32681000  0.90263000  0.07314000  1.0 0.1092122662
H  H51  1  0.33712000  0.66634000  0.95924000  1.0 0.1092122662
H  H52  1  0.19326000  0.67400000  0.80762000  1.0 0.1092122662
H  H53  1  0.10078000  0.67719000  0.79625000  1.0 0.1092122662
H  H54  1  0.18003000  0.90747000  0.05380000  1.0 0.1092122662
H  H55  1  0.83372000  0.35382000  0.02158000  1.0 0.1170025604
H  H56  1  0.82949000  0.25367000  0.92686000  1.0 0.1092122662
H  H57  1  0.70710000  0.37788000  0.04076000  1.0 0.1092122662
H  H58  1  0.86638000  0.38564000  0.19238000  1.0 0.1092122662
H  H59  1  0.88094000  0.30453000  0.20375000  1.0 0.1092122662
H  H60  1  0.85367000  0.12623000  0.94620000  1.0 0.1092122662
H  H61  1  0.56214000  0.08372000  0.97990000  1.0 0.1170025604
H  H62  1  0.65263000  0.07949000  0.07582000  1.0 0.1092122662
H  H63  1  0.41634000  0.95710000  0.82922000  1.0 0.1092122662
H  H64  1  0.42400000  0.11638000  0.98074000  1.0 0.1092122662
H  H65  1  0.42719000  0.13094000  0.07641000  1.0 0.1092122662
H  H66  1  0.65747000  0.10367000  0.22744000  1.0 0.1092122662
H  H67  1  0.10382000  0.58224000  0.02010000  1.0 0.1170025604
H  H68  1  0.00367000  0.57681000  0.92418000  1.0 0.1092122662
H  H69  1  0.12788000  0.58712000  0.17078000  1.0 0.1092122662
H  H70  1  0.13564000  0.44326000  0.01926000  1.0 0.1092122662
H  H71  1  0.05453000  0.35078000  0.92359000  1.0 0.1092122662
H  H72  1  0.87623000  0.43003000  0.77256000  1.0 0.1092122662
H  H73  1  0.91628000  0.43786000  0.02010000  1.0 0.1170025604
H  H74  1  0.92051000  0.34737000  0.92418000  1.0 0.1092122662
H  H75  1  0.04290000  0.58366000  0.17078000  1.0 0.1092122662
H  H76  1  0.88362000  0.57600000  0.01926000  1.0 0.1092122662
H  H77  1  0.86906000  0.57281000  0.92359000  1.0 0.1092122662
H  H78  1  0.89633000  0.34253000  0.77256000  1.0 0.1092122662
H  H79  1  0.41776000  0.89618000  0.97990000  1.0 0.1170025604
H  H80  1  0.42319000  0.99633000  0.07582000  1.0 0.1092122662
H  H81  1  0.41288000  0.87212000  0.82922000  1.0 0.1092122662
H  H82  1  0.55674000  0.86436000  0.98074000  1.0 0.1092122662
H  H83  1  0.64922000  0.94547000  0.07641000  1.0 0.1092122662
H  H84  1  0.56997000  0.12377000  0.22744000  1.0 0.1092122662
H  H85  1  0.64618000  0.16628000  0.97842000  1.0 0.1170025604
H  H86  1  0.74633000  0.17051000  0.07314000  1.0 0.1092122662
H  H87  1  0.62212000  0.29290000  0.95924000  1.0 0.1092122662
H  H88  1  0.61436000  0.13362000  0.80762000  1.0 0.1092122662
H  H89  1  0.69547000  0.11906000  0.79625000  1.0 0.1092122662
H  H90  1  0.87377000  0.14633000  0.05380000  1.0 0.1092122662
H  H91  1  0.18786000  0.66776000  0.02158000  1.0 0.1170025604
H  H92  1  0.09737000  0.67319000  0.92686000  1.0 0.1092122662
H  H93  1  0.33366000  0.66288000  0.04076000  1.0 0.1092122662
H  H94  1  0.32600000  0.80674000  0.19238000  1.0 0.1092122662
H  H95  1  0.32281000  0.89922000  0.20375000  1.0 0.1092122662
H  H96  1  0.09253000  0.81997000  0.94620000  1.0 0.1092122662
C  C1  1  0.54913000  0.44633000  0.56420000  1.0 0.0871033686
C  C2  1  0.44345000  0.41555000  0.48030000  1.0 -0.2707132016
C  C3  1  0.58101000  0.55291000  0.64950000  1.0 -0.2778108439
C  C4  1  0.57876000  0.69766000  0.66390000  1.0 0.5442639725
C  C5  1  0.54546000  0.59266000  0.58540000  1.0 0.0871033686
C  C6  1  0.57553000  0.40483000  0.62410000  1.0 0.545130836
C  C7  1  0.88213000  0.98493000  0.43580000  1.0 0.0871033686
C  C8  1  0.93525000  0.96315000  0.51970000  1.0 -0.2707132016
C  C9  1  0.90341000  0.93151000  0.35050000  1.0 -0.2778108439
C  C10  1  0.03376000  0.91486000  0.33610000  1.0 0.5442639725
C  C11  1  0.00726000  0.96006000  0.41460000  1.0 0.0871033686
C  C12  1  0.78073000  0.95143000  0.37590000  1.0 0.545130836
C  C13  1  0.19633000  0.13213000  0.39720000  1.0 0.0871033686
C  C14  1  0.16555000  0.18525000  0.47210000  1.0 -0.2707132016
C  C15  1  0.30291000  0.15341000  0.47190000  1.0 -0.2778108439
C  C16  1  0.44766000  0.28376000  0.61890000  1.0 0.5442639725
C  C17  1  0.34266000  0.25726000  0.54720000  1.0 0.0871033686
C  C18  1  0.15483000  0.03073000  0.32930000  1.0 0.545130836
C  C19  1  0.73493000  0.79913000  0.60280000  1.0 0.0871033686
C  C20  1  0.71315000  0.69345000  0.52790000  1.0 -0.2707132016
C  C21  1  0.68151000  0.83101000  0.52810000  1.0 -0.2778108439
C  C22  1  0.66486000  0.82876000  0.38110000  1.0 0.5442639725
C  C23  1  0.71006000  0.79546000  0.45280000  1.0 0.0871033686
C  C24  1  0.70143000  0.82553000  0.67070000  1.0 0.545130836
C  C25  1  0.86787000  0.80367000  0.60280000  1.0 0.0871033686
C  C26  1  0.81475000  0.83445000  0.52790000  1.0 -0.2707132016
C  C27  1  0.84659000  0.69709000  0.52810000  1.0 -0.2778108439
C  C28  1  0.71624000  0.55234000  0.38110000  1.0 0.545130836
C  C29  1  0.74274000  0.65734000  0.45280000  1.0 0.0871033686
C  C30  1  0.96927000  0.84517000  0.67070000  1.0 0.545130836
C  C31  1  0.20087000  0.26507000  0.39720000  1.0 0.0871033686
C  C32  1  0.30655000  0.28685000  0.47210000  1.0 -0.2707132016
C  C33  1  0.16899000  0.31849000  0.47190000  1.0 -0.2778108439
C  C34  1  0.17124000  0.33514000  0.61890000  1.0 0.5442639725
C  C35  1  0.20454000  0.28994000  0.54720000  1.0 0.0871033686
C  C36  1  0.17447000  0.29857000  0.32930000  1.0 0.545130836
C  C37  1  0.01507000  0.11787000  0.56420000  1.0 0.0871033686
C  C38  1  0.03685000  0.06475000  0.48030000  1.0 -0.2707132016
C  C39  1  0.06849000  0.09659000  0.64950000  1.0 -0.2778108439
C  C40  1  0.08514000  0.96624000  0.66390000  1.0 0.5442639725
C  C41  1  0.03994000  0.99274000  0.58540000  1.0 0.0871033686
C  C42  1  0.04857000  0.21927000  0.62410000  1.0 0.545130836
C  C43  1  0.55367000  0.45087000  0.43580000  1.0 0.0871033686
C  C44  1  0.58445000  0.55655000  0.51970000  1.0 -0.2707132016
C  C45  1  0.44709000  0.41899000  0.35050000  1.0 -0.2778108439
C  C46  1  0.30234000  0.42124000  0.33610000  1.0 0.5442639725
C  C47  1  0.40734000  0.45454000  0.41460000  1.0 0.0871033686
C  C48  1  0.59517000  0.42447000  0.37590000  1.0 0.545130836
C  C49  1  0.20087000  0.80367000  0.93580000  1.0 0.0871033686
C  C50  1  0.30655000  0.83445000  0.01970000  1.0 -0.2707132016
C  C51  1  0.16899000  0.69709000  0.85050000  1.0 -0.2778108439
C  C52  1  0.17124000  0.55234000  0.83610000  1.0 0.5442639725
C  C53  1  0.20454000  0.65734000  0.91460000  1.0 0.0871033686
C  C54  1  0.17447000  0.84517000  0.87590000  1.0 0.545130836
C  C55  1  0.86787000  0.26507000  0.06420000  1.0 0.0871033686
C  C56  1  0.81475000  0.28685000  0.98030000  1.0 -0.2707132016
C  C57  1  0.84659000  0.31849000  0.14950000  1.0 -0.2778108439
C  C58  1  0.71624000  0.33514000  0.16390000  1.0 0.545130836
C  C59  1  0.74274000  0.28994000  0.08540000  1.0 0.0871033686
C  C60  1  0.96927000  0.29857000  0.12410000  1.0 0.545130836
C  C61  1  0.55367000  0.11787000  0.10280000  1.0 0.0871033686
C  C62  1  0.58445000  0.06475000  0.02790000  1.0 -0.2707132016
C  C63  1  0.44709000  0.09659000  0.02810000  1.0 -0.2778108439
C  C64  1  0.30234000  0.96624000  0.88110000  1.0 0.5442639725
C  C65  1  0.40734000  0.99274000  0.95280000  1.0 0.0871033686
C  C66  1  0.59517000  0.21927000  0.17070000  1.0 0.5442639725
C  C67  1  0.01507000  0.45087000  0.89720000  1.0 0.0871033686
C  C68  1  0.03685000  0.55655000  0.97210000  1.0 -0.2707132016
C  C69  1  0.06849000  0.41899000  0.97190000  1.0 -0.2778108439
C  C70  1  0.08514000  0.42124000  0.11890000  1.0 0.5442639725
C  C71  1  0.03994000  0.45454000  0.04720000  1.0 0.0871033686
C  C72  1  0.04857000  0.42447000  0.82930000  1.0 0.545130836
C  C73  1  0.88213000  0.44633000  0.89720000  1.0 0.0871033686
C  C74  1  0.93525000  0.41555000  0.97210000  1.0 -0.2707132016
C  C75  1  0.90341000  0.55291000  0.97190000  1.0 -0.2778108439
C  C76  1  0.03376000  0.69766000  0.11890000  1.0 0.5442639725
C  C77  1  0.00726000  0.59266000  0.04720000  1.0 0.0871033686
C  C78  1  0.78073000  0.40483000  0.82930000  1.0 0.545130836
C  C79  1  0.54913000  0.98493000  0.10280000  1.0 0.0871033686
C  C80  1  0.44345000  0.96315000  0.02790000  1.0 -0.2707132016
C  C81  1  0.58101000  0.93151000  0.02810000  1.0 -0.2778108439
C  C82  1  0.57876000  0.91486000  0.88110000  1.0 0.5442639725
C  C83  1  0.54546000  0.96006000  0.95280000  1.0 0.0871033686
C  C84  1  0.57553000  0.95143000  0.17070000  1.0 0.545130836
C  C85  1  0.73493000  0.13213000  0.93580000  1.0 0.0871033686
C  C86  1  0.71315000  0.18525000  0.01970000  1.0 -0.2707132016
C  C87  1  0.68151000  0.15341000  0.85050000  1.0 -0.2778108439
C  C88  1  0.66486000  0.28376000  0.83610000  1.0 0.545130836
C  C89  1  0.71006000  0.25726000  0.91460000  1.0 0.0871033686
C  C90  1  0.70143000  0.03073000  0.87590000  1.0 0.545130836
C  C91  1  0.19633000  0.79913000  0.06420000  1.0 0.0871033686
C  C92  1  0.16555000  0.69345000  0.98030000  1.0 -0.2707132016
C  C93  1  0.30291000  0.83101000  0.14950000  1.0 -0.2778108439
C  C94  1  0.44766000  0.82876000  0.16390000  1.0 0.5442639725
C  C95  1  0.34266000  0.79546000  0.08540000  1.0 0.0871033686
C  C96  1  0.15483000  0.82553000  0.12410000  1.0 0.545130836
C  C97  1  0.43910000  0.56090000  0.50000000  1.0 -0.2707132016
C  C98  1  0.58930000  0.41070000  0.50000000  1.0 -0.2707132016
C  C99  1  0.06090000  0.93910000  0.50000000  1.0 -0.2707132016
C  C100  1  0.91070000  0.08930000  0.50000000  1.0 -0.2778108439
C  C101  1  0.31090000  0.31090000  0.62180000  1.0 -0.2707132016
C  C102  1  0.16070000  0.16070000  0.32140000  1.0 -0.2707132016
C  C103  1  0.68910000  0.68910000  0.37820000  1.0 -0.2707132016
C  C104  1  0.83930000  0.83930000  0.67860000  1.0 -0.2778108439
C  C105  1  0.31090000  0.68910000  0.00000000  1.0 -0.2707132016
C  C106  1  0.16070000  0.83930000  0.00000000  1.0 -0.2707132016
C  C107  1  0.68910000  0.31090000  0.00000000  1.0 -0.2707132016
C  C108  1  0.83930000  0.16070000  0.00000000  1.0 -0.2778108439
C  C109  1  0.43910000  0.93910000  0.87820000  1.0 -0.2707132016
C  C110  1  0.58930000  0.08930000  0.17860000  1.0 -0.2707132016
C  C111  1  0.06090000  0.56090000  0.12180000  1.0 -0.2707132016
C  C112  1  0.91070000  0.41070000  0.82140000  1.0 -0.2707132016
Kr  Kr1  1  0.62900000  0.12900000  0.50000000  1.0 0.1296462222
Kr  Kr2  1  0.48920000  0.98920000  0.50000000  1.0 0.3309249939
Kr  Kr3  1  0.87900000  0.87900000  0.00000000  1.0 0.1170025604
Kr  Kr4  1  0.73920000  0.73920000  0.00000000  1.0 0.3309249939
Kr  Kr5  1  0.12100000  0.12100000  0.00000000  1.0 0.1170025604
Kr  Kr6  1  0.26080000  0.26080000  0.00000000  1.0 0.3309249939
Kr  Kr7  1  0.87100000  0.37100000  0.50000000  1.0 0.1170025604
Kr  Kr8  1  0.01080000  0.51080000  0.50000000  1.0 0.3309249939
Kr  Kr9  1  0.39610000  0.86590000  0.53020000  1.0 0.1092122662
Kr  Kr10  1  0.33570000  0.86590000  0.46980000  1.0 0.1092122662
Kr  Kr11  1  0.61590000  0.58570000  0.96980000  1.0 0.1092122662
Kr  Kr12  1  0.61590000  0.64610000  0.03020000  1.0 0.1092122662
Kr  Kr13  1  0.41430000  0.38410000  0.03020000  1.0 0.1092122662
Kr  Kr14  1  0.35390000  0.38410000  0.96980000  1.0 0.1092122662
Kr  Kr15  1  0.13410000  0.66430000  0.53020000  1.0 0.1170025604
Kr  Kr16  1  0.13410000  0.60390000  0.46980000  1.0 0.1092122662
Kr  Kr17  1  0.37500000  0.12500000  0.25000000  1.0 0.140614702
Kr  Kr18  1  0.87500000  0.12500000  0.75000000  1.0 0.140614702
Kr  Kr19  1  0.87500000  0.12500000  0.25000000  1.0 0.140614702
Kr  Kr20  1  0.87500000  0.62500000  0.75000000  1.0 0.140614702
Kr  Kr21  1  0.16030000  0.14430000  0.01600000  1.0 0.1296462222
Kr  Kr22  1  0.33890000  0.12730000  0.21160000  1.0 -0.0375383433
Kr  Kr23  1  0.12830000  0.14430000  0.98400000  1.0 0.1296462222
Kr  Kr24  1  0.91570000  0.12730000  0.78840000  1.0 -0.0375383433
Kr  Kr25  1  0.89430000  0.37830000  0.48400000  1.0 0.1296462222
Kr  Kr26  1  0.87730000  0.16570000  0.28840000  1.0 -0.0375383433
Kr  Kr27  1  0.89430000  0.41030000  0.51600000  1.0 0.1296462222
Kr  Kr28  1  0.87730000  0.58890000  0.71160000  1.0 -0.0375383433
Kr  Kr29  1  0.62170000  0.10570000  0.51600000  1.0 0.1296462222
Kr  Kr30  1  0.83430000  0.12270000  0.71160000  1.0 -0.0375383433
Kr  Kr31  1  0.58970000  0.10570000  0.48400000  1.0 0.1296462222
Kr  Kr32  1  0.41110000  0.12270000  0.28840000  1.0 -0.0375383433
Kr  Kr33  1  0.85570000  0.87170000  0.01600000  1.0 0.1296462222
Kr  Kr34  1  0.87270000  0.08430000  0.21160000  1.0 -0.0375383433
Kr  Kr35  1  0.85570000  0.83970000  0.98400000  1.0 0.1296462222
Kr  Kr36  1  0.87270000  0.66110000  0.78840000  1.0 -0.0375383433
O  O1  1  0.65853000  0.73483000  0.75630000  1.0 -0.5326699627
O  O2  1  0.58398000  0.32368000  0.57890000  1.0 -0.5233152671
O  O3  1  0.52483000  0.73733000  0.62450000  1.0 -0.5032121888
O  O4  1  0.58279000  0.45489000  0.71290000  1.0 -0.5032121888
O  O5  1  0.97853000  0.90223000  0.24370000  1.0 -0.5326699627
O  O6  1  0.74478000  0.00508000  0.42110000  1.0 -0.5233152671
O  O7  1  0.11283000  0.90033000  0.37550000  1.0 -0.5032121888
O  O8  1  0.74199000  0.86989000  0.28710000  1.0 -0.5032121888
O  O9  1  0.48483000  0.22853000  0.57630000  1.0 -0.5326699627
O  O10  1  0.07368000  0.99478000  0.23970000  1.0 -0.5233152671
O  O11  1  0.48733000  0.36283000  0.71250000  1.0 -0.5032121888
O  O12  1  0.20489000  0.99199000  0.37210000  1.0 -0.5032121888
O  O13  1  0.65223000  0.90853000  0.42370000  1.0 -0.5326699627
O  O14  1  0.75508000  0.83398000  0.76030000  1.0 -0.5233152671
O  O15  1  0.65033000  0.77483000  0.28750000  1.0 -0.5032121888
O  O16  1  0.61989000  0.83279000  0.62790000  1.0 -0.5032121888
O  O17  1  0.77147000  0.51517000  0.42370000  1.0 -0.5326699627
O  O18  1  0.00522000  0.92632000  0.76030000  1.0 -0.5233152671
O  O19  1  0.63717000  0.51267000  0.28750000  1.0 -0.5032121888
O  O20  1  0.00801000  0.79511000  0.62790000  1.0 -0.5032121888
O  O21  1  0.09147000  0.34777000  0.57630000  1.0 -0.5326699627
O  O22  1  0.16602000  0.24492000  0.23970000  1.0 -0.5233152671
O  O23  1  0.22517000  0.34967000  0.71250000  1.0 -0.5032121888
O  O24  1  0.16721000  0.38011000  0.37210000  1.0 -0.5032121888
O  O25  1  0.09777000  0.02147000  0.75630000  1.0 -0.5326699627
O  O26  1  0.99492000  0.25522000  0.57890000  1.0 -0.5233152671
O  O27  1  0.09967000  0.88717000  0.62450000  1.0 -0.5032121888
O  O28  1  0.13011000  0.25801000  0.71290000  1.0 -0.5032121888
O  O29  1  0.26517000  0.34147000  0.24370000  1.0 -0.5326699627
O  O30  1  0.67632000  0.41602000  0.42110000  1.0 -0.5233152671
O  O31  1  0.26267000  0.47517000  0.37550000  1.0 -0.5032121888
O  O32  1  0.54511000  0.41721000  0.28710000  1.0 -0.5032121888
O  O33  1  0.09147000  0.51517000  0.74370000  1.0 -0.5326699627
O  O34  1  0.16602000  0.92632000  0.92110000  1.0 -0.5233152671
O  O35  1  0.22517000  0.51267000  0.87550000  1.0 -0.5032121888
O  O36  1  0.16721000  0.79511000  0.78710000  1.0 -0.5032121888
O  O37  1  0.77147000  0.34777000  0.25630000  1.0 -0.5326699627
O  O38  1  0.00522000  0.24492000  0.07890000  1.0 -0.5233152671
O  O39  1  0.63717000  0.34967000  0.12450000  1.0 -0.5032121888
O  O40  1  0.00801000  0.38011000  0.21290000  1.0 -0.5032121888
O  O41  1  0.26517000  0.02147000  0.92370000  1.0 -0.5326699627
O  O42  1  0.67632000  0.25522000  0.26030000  1.0 -0.5233152671
O  O43  1  0.26267000  0.88717000  0.78750000  1.0 -0.5032121888
O  O44  1  0.54511000  0.25801000  0.12790000  1.0 -0.5032121888
O  O45  1  0.09777000  0.34147000  0.07630000  1.0 -0.5326699627
O  O46  1  0.99492000  0.41602000  0.73970000  1.0 -0.5233152671
O  O47  1  0.09967000  0.47517000  0.21250000  1.0 -0.5032121888
O  O48  1  0.13011000  0.41721000  0.87210000  1.0 -0.5032121888
O  O49  1  0.97853000  0.73483000  0.07630000  1.0 -0.5326699627
O  O50  1  0.74478000  0.32368000  0.73970000  1.0 -0.5233152671
O  O51  1  0.11283000  0.73733000  0.21250000  1.0 -0.5032121888
O  O52  1  0.74199000  0.45489000  0.87210000  1.0 -0.5032121888
O  O53  1  0.65853000  0.90223000  0.92370000  1.0 -0.5326699627
O  O54  1  0.58398000  0.00508000  0.26030000  1.0 -0.5233152671
O  O55  1  0.52483000  0.90033000  0.78750000  1.0 -0.5032121888
O  O56  1  0.58279000  0.86989000  0.12790000  1.0 -0.5032121888
O  O57  1  0.65223000  0.22853000  0.74370000  1.0 -0.5326699627
O  O58  1  0.75508000  0.99478000  0.92110000  1.0 -0.5233152671
O  O59  1  0.65033000  0.36283000  0.87550000  1.0 -0.5032121888
O  O60  1  0.61989000  0.99199000  0.78710000  1.0 -0.5032121888
O  O61  1  0.48483000  0.90853000  0.25630000  1.0 -0.5326699627
O  O62  1  0.07368000  0.83398000  0.07890000  1.0 -0.5233152671
O  O63  1  0.48733000  0.77483000  0.12450000  1.0 -0.5032121888
O  O64  1  0.20489000  0.83279000  0.21290000  1.0 -0.5032121888
