# DDEC6 charges by PACMAN v1.1 (https://github.com/mtap-research/PACMAN-charge/)
data_YAPHIK_ASR_pacman
_chemical_formula_sum              "Co18 O117 C90 H18 N9"
_cell_length_a       25.8045
_cell_length_b       25.8045
_cell_length_c       6.7804
_cell_angle_alpha    90
_cell_angle_beta     90
_cell_angle_gamma    120

_symmetry_space_group_name_H-M    "P 1"
_symmetry_Int_Tables_number       1

loop_
  _symmetry_equiv_pos_as_xyz
  'x, y, z'

loop_
  _atom_site_type_symbol
  _atom_site_label
  _atom_site_symmetry_multiplicity
  _atom_site_fract_x
  _atom_site_fract_y
  _atom_site_fract_z
  _atom_site_occupancy
 _atom_site_charge
Co  Co1       1.0  0.38538  0.35038  0.15040  1.0000 0.9970446751
O   O1        1.0  0.32353  0.29562  0.35940  1.0000 -0.6101249179
O   O2        1.0  0.29834  0.22824  0.59730  1.0000 -0.546287193
O   O3        1.0  0.35539  0.27363  0.00010  1.0000 -0.6101249179
C   C1        1.0  0.31559  0.24615  0.42360  1.0000 0.6193498564
C   C2        1.0  0.32630  0.20727  0.28620  1.0000 -0.1527459381
C   C3        1.0  0.34379  0.22190  0.08620  1.0000 0.2896896659
C   C4        1.0  0.31637  0.15257  0.36070  1.0000 -0.2101127339
H   H1        1.0  0.30467  0.14313  0.49470  1.0000 0.1407382348
N   N1        1.0  0.34481  0.89097  0.72360  1.0000 -0.0121061713
Co  Co2       1.0  0.05205  0.68371  0.48373  1.0000 0.9970446751
O   O4        1.0  0.99020  0.62895  0.69273  1.0000 -0.6101249179
O   O5        1.0  0.96501  0.56157  0.93063  1.0000 -0.546287193
O   O6        1.0  0.02206  0.60696  0.33343  1.0000 -0.6101249179
C   C5        1.0  0.98226  0.57948  0.75693  1.0000 0.6193498564
C   C6        1.0  0.99297  0.54060  0.61953  1.0000 -0.1527459381
C   C7        1.0  0.01046  0.55523  0.41953  1.0000 0.2896896659
C   C8        1.0  0.98304  0.48590  0.69403  1.0000 -0.2101127339
H   H2        1.0  0.97133  0.47647  0.82803  1.0000 0.1407382348
N   N2        1.0  0.01148  0.22430  0.05693  1.0000 -0.0121061713
Co  Co3       1.0  0.71871  0.01705  0.81707  1.0000 0.9970446751
O   O7        1.0  0.65686  0.96229  0.02607  1.0000 -0.6101249179
O   O8        1.0  0.63167  0.89491  0.26397  1.0000 -0.546287193
O   O9        1.0  0.68872  0.94030  0.66677  1.0000 -0.6101249179
C   C9        1.0  0.64892  0.91282  0.09027  1.0000 0.6193498564
C   C10       1.0  0.65963  0.87394  0.95287  1.0000 -0.1527459381
C   C11       1.0  0.67712  0.88857  0.75287  1.0000 0.2896896659
C   C12       1.0  0.64970  0.81924  0.02737  1.0000 -0.2101127339
H   H3        1.0  0.63800  0.80980  0.16137  1.0000 0.1407382348
N   N3        1.0  0.67814  0.55764  0.39027  1.0000 -0.0121061713
Co  Co4       1.0  0.64962  0.03500  0.15040  1.0000 0.9970446751
O   O10       1.0  0.70438  0.02791  0.35940  1.0000 -0.6101249179
O   O11       1.0  0.77176  0.07010  0.59730  1.0000 -0.546287193
O   O12       1.0  0.72637  0.08176  0.00010  1.0000 -0.6101249179
C   C13       1.0  0.75385  0.06944  0.42360  1.0000 0.6193498564
C   C14       1.0  0.79273  0.11903  0.28620  1.0000 -0.1527459381
C   C15       1.0  0.77810  0.12189  0.08620  1.0000 0.2896896659
C   C16       1.0  0.84743  0.16380  0.36070  1.0000 -0.2101127339
H   H4        1.0  0.85687  0.16153  0.49470  1.0000 0.1407382348
N   N4        1.0  0.10903  0.45384  0.72360  1.0000 -0.0121061713
Co  Co5       1.0  0.31629  0.36833  0.48373  1.0000 0.9970446751
O   O13       1.0  0.37105  0.36124  0.69273  1.0000 -0.6101249179
O   O14       1.0  0.43843  0.40343  0.93063  1.0000 -0.546287193
O   O15       1.0  0.39304  0.41509  0.33343  1.0000 -0.6101249179
C   C17       1.0  0.42052  0.40277  0.75693  1.0000 0.6193498564
C   C18       1.0  0.45940  0.45236  0.61953  1.0000 -0.1527459381
C   C19       1.0  0.44477  0.45522  0.41953  1.0000 0.2896896659
C   C20       1.0  0.51410  0.49713  0.69403  1.0000 -0.2101127339
H   H5        1.0  0.52353  0.49487  0.82803  1.0000 0.1407382348
N   N5        1.0  0.77570  0.78717  0.05693  1.0000 -0.016798737
Co  Co6       1.0  0.98295  0.70167  0.81707  1.0000 0.9970446751
O   O16       1.0  0.03771  0.69458  0.02607  1.0000 -0.6151201865
O   O17       1.0  0.10509  0.73677  0.26397  1.0000 -0.546287193
O   O18       1.0  0.05970  0.74843  0.66677  1.0000 -0.6101249179
C   C21       1.0  0.08718  0.73611  0.09027  1.0000 0.6193498564
C   C22       1.0  0.12606  0.78570  0.95287  1.0000 -0.1527459381
C   C23       1.0  0.11143  0.78856  0.75287  1.0000 0.2896896659
C   C24       1.0  0.18076  0.83047  0.02737  1.0000 -0.2101127339
H   H6        1.0  0.19020  0.82820  0.16137  1.0000 0.1407382348
N   N6        1.0  0.44236  0.12051  0.39027  1.0000 -0.0121061713
Co  Co7       1.0  0.96500  0.61462  0.15040  1.0000 0.9970446751
O   O19       1.0  0.97209  0.67647  0.35940  1.0000 -0.6101249179
O   O20       1.0  0.92990  0.70166  0.59730  1.0000 -0.546287193
O   O21       1.0  0.91824  0.64461  0.00010  1.0000 -0.6101249179
C   C25       1.0  0.93056  0.68441  0.42360  1.0000 0.6193498564
C   C26       1.0  0.88097  0.67370  0.28620  1.0000 -0.1527459381
C   C27       1.0  0.87811  0.65621  0.08620  1.0000 0.2896896659
C   C28       1.0  0.83620  0.68363  0.36070  1.0000 -0.2101127339
H   H7        1.0  0.83847  0.69533  0.49470  1.0000 0.1407382348
N   N7        1.0  0.54616  0.65519  0.72360  1.0000 -0.016798737
Co  Co8       1.0  0.63167  0.94795  0.48373  1.0000 0.9970446751
O   O22       1.0  0.63876  0.00980  0.69273  1.0000 -0.6101249179
O   O23       1.0  0.59657  0.03499  0.93063  1.0000 -0.546287193
O   O24       1.0  0.58491  0.97794  0.33343  1.0000 -0.6101249179
C   C29       1.0  0.59723  0.01774  0.75693  1.0000 0.6193498564
C   C30       1.0  0.54764  0.00703  0.61953  1.0000 -0.1527459381
C   C31       1.0  0.54478  0.98954  0.41953  1.0000 0.2896896659
C   C32       1.0  0.50287  0.01696  0.69403  1.0000 -0.2101127339
H   H8        1.0  0.50513  0.02867  0.82803  1.0000 0.1407382348
N   N8        1.0  0.21283  0.98852  0.05693  1.0000 -0.016798737
Co  Co9       1.0  0.29833  0.28129  0.81707  1.0000 0.9970446751
O   O25       1.0  0.30542  0.34314  0.02607  1.0000 -0.6101249179
O   O26       1.0  0.26323  0.36833  0.26397  1.0000 -0.546287193
O   O27       1.0  0.25157  0.31128  0.66677  1.0000 -0.6101249179
C   C33       1.0  0.26389  0.35108  0.09027  1.0000 0.6193498564
C   C34       1.0  0.21430  0.34037  0.95287  1.0000 -0.1527459381
C   C35       1.0  0.21144  0.32288  0.75287  1.0000 0.2896896659
C   C36       1.0  0.16953  0.35030  0.02737  1.0000 -0.2101127339
H   H9        1.0  0.17180  0.36200  0.16137  1.0000 0.1407382348
N   N9        1.0  0.87949  0.32186  0.39027  1.0000 -0.0121061713
O   O28       1.0  0.44200  0.57750  0.82800  1.0000 0.0407644109
Co  Co10      1.0  0.61462  0.64962  0.84960  1.0000 0.9170817924
O   O29       1.0  0.67647  0.70438  0.64060  1.0000 -0.5767088011
O   O30       1.0  0.70166  0.77176  0.40270  1.0000 -0.5385178071
O   O31       1.0  0.64461  0.72637  0.99990  1.0000 -0.6041190964
C   C37       1.0  0.68441  0.75385  0.57640  1.0000 0.5812738464
C   C38       1.0  0.67370  0.79273  0.71380  1.0000 -0.1380182711
C   C39       1.0  0.65621  0.77810  0.91380  1.0000 0.2525405545
C   C40       1.0  0.68363  0.84743  0.63930  1.0000 -0.2101127339
H   H10       1.0  0.69533  0.85687  0.50530  1.0000 0.1271866519
C   C41       1.0  0.52890  0.66930  0.54000  1.0000 0.0528793344
O   O32       1.0  0.49950  0.68410  0.99300  1.0000 -0.1689763699
O   O33       1.0  0.45000  0.61000  0.01100  1.0000 -0.0743719285
O   O34       1.0  0.42700  0.59300  0.63500  1.0000 -0.1877285404
O   O35       1.0  0.54250  0.69480  0.30900  1.0000 -0.1689763699
O   O36       1.0  0.49740  0.61790  0.75300  1.0000 0.2195974206
C   C42       1.0  0.48940  0.65160  0.75920  1.0000 0.3253609994
O   O37       1.0  0.51030  0.65600  0.82800  1.0000 0.2366970206
O   O38       1.0  0.10867  0.91083  0.16133  1.0000 0.0572880079
Co  Co11      1.0  0.28129  0.98295  0.18293  1.0000 0.9170817924
O   O39       1.0  0.34314  0.03771  0.97393  1.0000 -0.5767088011
O   O40       1.0  0.36833  0.10509  0.73603  1.0000 -0.5385178071
O   O41       1.0  0.31128  0.05970  0.33323  1.0000 -0.6041190964
C   C43       1.0  0.35108  0.08718  0.90973  1.0000 0.5812738464
C   C44       1.0  0.34037  0.12606  0.04713  1.0000 -0.1380182711
C   C45       1.0  0.32288  0.11143  0.24713  1.0000 0.2525405545
C   C46       1.0  0.35030  0.18076  0.97263  1.0000 -0.2101127339
H   H11       1.0  0.36200  0.19020  0.83863  1.0000 0.1271866519
C   C47       1.0  0.19557  0.00263  0.87333  1.0000 0.0528793344
O   O42       1.0  0.16617  0.01743  0.32633  1.0000 -0.1689763699
O   O43       1.0  0.11667  0.94333  0.34433  1.0000 -0.0743719285
O   O44       1.0  0.09367  0.92633  0.96833  1.0000 -0.1814219993
O   O45       1.0  0.20917  0.02813  0.64233  1.0000 -0.1689763699
O   O46       1.0  0.16407  0.95123  0.08633  1.0000 0.2142717251
C   C48       1.0  0.15607  0.98493  0.09253  1.0000 0.3253609994
O   O47       1.0  0.17697  0.98933  0.16133  1.0000 0.2366970206
O   O48       1.0  0.77533  0.24417  0.49467  1.0000 0.0528793344
Co  Co12      1.0  0.94795  0.31629  0.51627  1.0000 0.9170817924
O   O49       1.0  0.00980  0.37105  0.30727  1.0000 -0.5767088011
O   O50       1.0  0.03499  0.43843  0.06937  1.0000 -0.5385178071
O   O51       1.0  0.97794  0.39304  0.66657  1.0000 -0.6101249179
C   C49       1.0  0.01774  0.42052  0.24307  1.0000 0.5812738464
C   C50       1.0  0.00703  0.45940  0.38047  1.0000 -0.1380182711
C   C51       1.0  0.98954  0.44477  0.58047  1.0000 0.2525405545
C   C52       1.0  0.01696  0.51410  0.30597  1.0000 -0.2101127339
H   H12       1.0  0.02867  0.52353  0.17197  1.0000 0.1271866519
C   C53       1.0  0.86223  0.33597  0.20667  1.0000 0.0572880079
O   O52       1.0  0.83283  0.35077  0.65967  1.0000 -0.1627073429
O   O53       1.0  0.78333  0.27667  0.67767  1.0000 -0.0756389795
O   O54       1.0  0.76033  0.25967  0.30167  1.0000 -0.1877285404
O   O55       1.0  0.87583  0.36147  0.97567  1.0000 -0.1814219993
O   O56       1.0  0.83073  0.28457  0.41967  1.0000 0.2195974206
C   C54       1.0  0.82273  0.31827  0.42587  1.0000 0.3222855147
O   O57       1.0  0.84363  0.32267  0.49467  1.0000 0.2366970206
O   O58       1.0  0.42250  0.86450  0.82800  1.0000 0.0572880079
Co  Co13      1.0  0.35038  0.96500  0.84960  1.0000 0.9170817924
O   O59       1.0  0.29562  0.97209  0.64060  1.0000 -0.5767088011
O   O60       1.0  0.22824  0.92990  0.40270  1.0000 -0.5385178071
O   O61       1.0  0.27363  0.91824  0.99990  1.0000 -0.6101249179
C   C55       1.0  0.24615  0.93056  0.57640  1.0000 0.5812738464
C   C56       1.0  0.20727  0.88097  0.71380  1.0000 -0.1380182711
C   C57       1.0  0.22190  0.87811  0.91380  1.0000 0.2525405545
C   C58       1.0  0.15257  0.83620  0.63930  1.0000 -0.2101127339
H   H13       1.0  0.14313  0.83847  0.50530  1.0000 0.1271866519
C   C59       1.0  0.33070  0.85960  0.54000  1.0000 0.0572880079
O   O62       1.0  0.31590  0.81540  0.99300  1.0000 -0.1627073429
O   O63       1.0  0.39000  0.84000  0.01100  1.0000 -0.0743719285
O   O64       1.0  0.40700  0.83400  0.63500  1.0000 -0.1877285404
O   O65       1.0  0.30520  0.84770  0.30900  1.0000 -0.1877285404
O   O66       1.0  0.38210  0.87950  0.75300  1.0000 0.2195974206
C   C60       1.0  0.34840  0.83780  0.75920  1.0000 0.3222855147
O   O67       1.0  0.34400  0.85430  0.82800  1.0000 0.2366970206
O   O68       1.0  0.08917  0.19783  0.16133  1.0000 0.0528793344
Co  Co14      1.0  0.01705  0.29833  0.18293  1.0000 0.9170817924
O   O69       1.0  0.96229  0.30542  0.97393  1.0000 -0.5767088011
O   O70       1.0  0.89491  0.26323  0.73603  1.0000 -0.5385178071
O   O71       1.0  0.94030  0.25157  0.33323  1.0000 -0.6041190964
C   C61       1.0  0.91282  0.26389  0.90973  1.0000 0.5812738464
C   C62       1.0  0.87394  0.21430  0.04713  1.0000 -0.1380182711
C   C63       1.0  0.88857  0.21144  0.24713  1.0000 0.2525405545
C   C64       1.0  0.81924  0.16953  0.97263  1.0000 -0.2101127339
H   H14       1.0  0.80980  0.17180  0.83863  1.0000 0.1271866519
C   C65       1.0  0.99737  0.19293  0.87333  1.0000 0.0528793344
O   O72       1.0  0.98257  0.14873  0.32633  1.0000 -0.1627073429
O   O73       1.0  0.05667  0.17333  0.34433  1.0000 -0.0756389795
O   O74       1.0  0.07367  0.16733  0.96833  1.0000 -0.1814219993
O   O75       1.0  0.97187  0.18103  0.64233  1.0000 -0.1689763699
O   O76       1.0  0.04877  0.21283  0.08633  1.0000 0.2195974206
C   C66       1.0  0.01507  0.17113  0.09253  1.0000 0.3222855147
O   O77       1.0  0.01067  0.18763  0.16133  1.0000 0.2366970206
O   O78       1.0  0.75583  0.53117  0.49467  1.0000 0.0572880079
Co  Co15      1.0  0.68371  0.63167  0.51627  1.0000 0.9170817924
O   O79       1.0  0.62895  0.63876  0.30727  1.0000 -0.5767088011
O   O80       1.0  0.56157  0.59657  0.06937  1.0000 -0.5385178071
O   O81       1.0  0.60696  0.58491  0.66657  1.0000 -0.6041190964
C   C67       1.0  0.57948  0.59723  0.24307  1.0000 0.5812738464
C   C68       1.0  0.54060  0.54764  0.38047  1.0000 -0.1380182711
C   C69       1.0  0.55523  0.54478  0.58047  1.0000 0.2525405545
C   C70       1.0  0.48590  0.50287  0.30597  1.0000 -0.2101127339
H   H15       1.0  0.47647  0.50513  0.17197  1.0000 0.1271866519
C   C71       1.0  0.66403  0.52627  0.20667  1.0000 0.0528793344
O   O82       1.0  0.64923  0.48207  0.65967  1.0000 -0.1627073429
O   O83       1.0  0.72333  0.50667  0.67767  1.0000 -0.0756389795
O   O84       1.0  0.74033  0.50067  0.30167  1.0000 -0.1877285404
O   O85       1.0  0.63853  0.51437  0.97567  1.0000 -0.1689763699
O   O86       1.0  0.71543  0.54617  0.41967  1.0000 0.2195974206
C   C72       1.0  0.68173  0.50447  0.42587  1.0000 0.3222855147
O   O87       1.0  0.67733  0.52097  0.49467  1.0000 0.2366970206
O   O88       1.0  0.13550  0.55800  0.82800  1.0000 0.0528793344
Co  Co16      1.0  0.03500  0.38538  0.84960  1.0000 0.9170817924
O   O89       1.0  0.02791  0.32353  0.64060  1.0000 -0.5767088011
O   O90       1.0  0.07010  0.29834  0.40270  1.0000 -0.5385178071
O   O91       1.0  0.08176  0.35539  0.99990  1.0000 -0.6041190964
C   C73       1.0  0.06944  0.31559  0.57640  1.0000 0.5812738464
C   C74       1.0  0.11903  0.32630  0.71380  1.0000 -0.1380182711
C   C75       1.0  0.12189  0.34379  0.91380  1.0000 0.2525405545
C   C76       1.0  0.16380  0.31637  0.63930  1.0000 -0.2101127339
H   H16       1.0  0.16153  0.30467  0.50530  1.0000 0.1271866519
C   C77       1.0  0.14040  0.47110  0.54000  1.0000 0.0528793344
O   O92       1.0  0.18460  0.50050  0.99300  1.0000 -0.1627073429
O   O93       1.0  0.16000  0.55000  0.01100  1.0000 -0.0756389795
O   O94       1.0  0.16600  0.57300  0.63500  1.0000 -0.1814219993
O   O95       1.0  0.15230  0.45750  0.30900  1.0000 -0.1814219993
O   O96       1.0  0.12050  0.50260  0.75300  1.0000 0.2195974206
C   C78       1.0  0.16220  0.51060  0.75920  1.0000 0.3222855147
O   O97       1.0  0.14570  0.48970  0.82800  1.0000 0.2366970206
O   O98       1.0  0.80217  0.89133  0.16133  1.0000 0.0572880079
Co  Co17      1.0  0.70167  0.71871  0.18293  1.0000 0.9170817924
O   O99       1.0  0.69458  0.65686  0.97393  1.0000 -0.5767088011
O   O100      1.0  0.73677  0.63167  0.73603  1.0000 -0.5385178071
O   O101      1.0  0.74843  0.68872  0.33323  1.0000 -0.6041190964
C   C79       1.0  0.73611  0.64892  0.90973  1.0000 0.5812738464
C   C80       1.0  0.78570  0.65963  0.04713  1.0000 -0.1380182711
C   C81       1.0  0.78856  0.67712  0.24713  1.0000 0.2525405545
C   C82       1.0  0.83047  0.64970  0.97263  1.0000 -0.2101127339
H   H17       1.0  0.82820  0.63800  0.83863  1.0000 0.1271866519
C   C83       1.0  0.80707  0.80443  0.87333  1.0000 0.0528793344
O   O102      1.0  0.85127  0.83383  0.32633  1.0000 -0.1627073429
O   O103      1.0  0.82667  0.88333  0.34433  1.0000 -0.0756389795
O   O104      1.0  0.83267  0.90633  0.96833  1.0000 -0.1877285404
O   O105      1.0  0.81897  0.79083  0.64233  1.0000 -0.1689763699
O   O106      1.0  0.78717  0.83593  0.08633  1.0000 0.2195974206
C   C84       1.0  0.82887  0.84393  0.09253  1.0000 0.3222855147
O   O107      1.0  0.81237  0.82303  0.16133  1.0000 0.2366970206
O   O108      1.0  0.46883  0.22467  0.49467  1.0000 0.068111197
Co  Co18      1.0  0.36833  0.05205  0.51627  1.0000 0.9170817924
O   O109      1.0  0.36124  0.99020  0.30727  1.0000 -0.5767088011
O   O110      1.0  0.40343  0.96501  0.06937  1.0000 -0.5385178071
O   O111      1.0  0.41509  0.02206  0.66657  1.0000 -0.6101249179
C   C85       1.0  0.40277  0.98226  0.24307  1.0000 0.5812738464
C   C86       1.0  0.45236  0.99297  0.38047  1.0000 -0.1380182711
C   C87       1.0  0.45522  0.01046  0.58047  1.0000 0.2525405545
C   C88       1.0  0.49713  0.98304  0.30597  1.0000 -0.2101127339
H   H18       1.0  0.49487  0.97133  0.17197  1.0000 0.1271866519
C   C89       1.0  0.47373  0.13777  0.20667  1.0000 0.0572880079
O   O112      1.0  0.51793  0.16717  0.65967  1.0000 -0.1627073429
O   O113      1.0  0.49333  0.21667  0.67767  1.0000 -0.0743719285
O   O114      1.0  0.49933  0.23967  0.30167  1.0000 -0.1877285404
O   O115      1.0  0.48563  0.12417  0.97567  1.0000 -0.1814219993
O   O116      1.0  0.45383  0.16927  0.41967  1.0000 0.2195974206
C   C90       1.0  0.49553  0.17727  0.42587  1.0000 0.3222855147
O   O117      1.0  0.47903  0.15637  0.49467  1.0000 0.2366970206
  O   O118      1.0  0.34481  0.89097  0.72360  1.0000
  O   O119      1.0  0.01148  0.22430  0.05693  1.0000
  O   O120      1.0  0.67814  0.55764  0.39027  1.0000
  O   O121      1.0  0.10903  0.45384  0.72360  1.0000
  O   O122      1.0  0.77570  0.78717  0.05693  1.0000
  O   O123      1.0  0.44236  0.12051  0.39027  1.0000
  O   O124      1.0  0.54616  0.65519  0.72360  1.0000
  O   O125      1.0  0.21283  0.98852  0.05693  1.0000
  O   O126      1.0  0.87949  0.32186  0.39027  1.0000
