# DDEC6 charges by PACMAN v1.1 (https://github.com/mtap-research/PACMAN-charge/)
data_YAPRUE_ASR_pacman
_symmetry_space_group_name_H-M   'P 1'
_cell_length_a   18.73450000
_cell_length_b   18.73450000
_cell_length_c   18.73450000
_cell_angle_alpha   99.79440000
_cell_angle_beta   99.79440000
_cell_angle_gamma   131.28300000
_symmetry_Int_Tables_number   1
_chemical_formula_structural   CsH40(C6O5)4
_chemical_formula_sum   'Cs4 H160 C96 O80'
_cell_volume   4501.33059436
_cell_formula_units_Z   4
loop_
 _symmetry_equiv_pos_site_id
 _symmetry_equiv_pos_as_xyz
  1  'x, y, z'
loop_
 _atom_site_type_symbol
 _atom_site_label
 _atom_site_symmetry_multiplicity
 _atom_site_fract_x
 _atom_site_fract_y
 _atom_site_fract_z
 _atom_site_occupancy
 _atom_site_charge
Cs  Cs1  1  0.05334000  0.21606000  0.49906000  1.0 0.8421422827
Cs  Cs2  1  0.71700000  0.55428000  0.50094000  1.0 0.8421422827
Cs  Cs3  1  0.55428000  0.05334000  0.83728000  1.0 0.8421422827
Cs  Cs4  1  0.21606000  0.71700000  0.16272000  1.0 0.8421422827
H  H1  1  0.53660000  0.68220000  0.59660000  1.0 0.3316177713
H  H2  1  0.08560000  0.94000000  0.40340000  1.0 0.3316177713
H  H3  1  0.94000000  0.53660000  0.85440000  1.0 0.3316177713
H  H4  1  0.68220000  0.08560000  0.14560000  1.0 0.3316177713
H  H5  1  0.66090000  0.64880000  0.68050000  1.0 0.3133536714
H  H6  1  0.96830000  0.98040000  0.31950000  1.0 0.3133536714
H  H7  1  0.98040000  0.66090000  0.01210000  1.0 0.3133536714
H  H8  1  0.64880000  0.96830000  0.98790000  1.0 0.3133536714
H  H9  1  0.18400000  0.13220000  0.50600000  1.0 0.2957270729
H  H10  1  0.62620000  0.67800000  0.49400000  1.0 0.2957270729
H  H11  1  0.67800000  0.18400000  0.05180000  1.0 0.2957270729
H  H12  1  0.13220000  0.62620000  0.94820000  1.0 0.2957270729
H  H13  1  0.80710000  0.48470000  0.78020000  1.0 0.3376048418
H  H14  1  0.70450000  0.02690000  0.21980000  1.0 0.3376048418
H  H15  1  0.02690000  0.80710000  0.32240000  1.0 0.3376048418
H  H16  1  0.48470000  0.70450000  0.67760000  1.0 0.3376048418
H  H17  1  0.61840000  0.48240000  0.62700000  1.0 0.3214233431
H  H18  1  0.85540000  0.99140000  0.37300000  1.0 0.3214233431
H  H19  1  0.99140000  0.61840000  0.13600000  1.0 0.3214233431
H  H20  1  0.48240000  0.85540000  0.86400000  1.0 0.3214233431
H  H21  1  0.31340000  0.12590000  0.73090000  1.0 0.3376048418
H  H22  1  0.39500000  0.58250000  0.26910000  1.0 0.3376048418
H  H23  1  0.58250000  0.31340000  0.18750000  1.0 0.3376048418
H  H24  1  0.12590000  0.39500000  0.81250000  1.0 0.3376048418
H  H25  1  0.45190000  0.57430000  0.44760000  1.0 0.3133536714
H  H26  1  0.12670000  0.00430000  0.55240000  1.0 0.3133536714
H  H27  1  0.00430000  0.45190000  0.87760000  1.0 0.3133536714
H  H28  1  0.57430000  0.12670000  0.12240000  1.0 0.3133536714
H  H29  1  0.24360000  0.54800000  0.34020000  1.0 0.3214233431
H  H30  1  0.20780000  0.90340000  0.65980000  1.0 0.3214233431
H  H31  1  0.90340000  0.24360000  0.69560000  1.0 0.3214233431
H  H32  1  0.54800000  0.20780000  0.30440000  1.0 0.3214233431
H  H33  1  0.87730000  0.15470000  0.31820000  1.0 0.3316177713
H  H34  1  0.83650000  0.55910000  0.68180000  1.0 0.3316177713
H  H35  1  0.55910000  0.87730000  0.72260000  1.0 0.3316177713
H  H36  1  0.15470000  0.83650000  0.27740000  1.0 0.3316177713
H  H37  1  0.17500000  0.53400000  0.27360000  1.0 0.3214233431
H  H38  1  0.26040000  0.90140000  0.72640000  1.0 0.3214233431
H  H39  1  0.90140000  0.17500000  0.64100000  1.0 0.3214233431
H  H40  1  0.53400000  0.26040000  0.35900000  1.0 0.3214233431
H  H41  1  0.99760000  0.44540000  0.01640000  1.0 0.3214233431
H  H42  1  0.42900000  0.98120000  0.98360000  1.0 0.3214233431
H  H43  1  0.98120000  0.99760000  0.55220000  1.0 0.3214233431
H  H44  1  0.44540000  0.42900000  0.44780000  1.0 0.3214233431
H  H45  1  0.73800000  0.03450000  0.09690000  1.0 0.3316177713
H  H46  1  0.93760000  0.64110000  0.90310000  1.0 0.3316177713
H  H47  1  0.64110000  0.73800000  0.70350000  1.0 0.3316177713
H  H48  1  0.03450000  0.93760000  0.29650000  1.0 0.3316177713
H  H49  1  0.32790000  0.51230000  0.59080000  1.0 0.0809199313
H  H50  1  0.92150000  0.73710000  0.40920000  1.0 0.0809199313
H  H51  1  0.73710000  0.32790000  0.81560000  1.0 0.0809199313
H  H52  1  0.51230000  0.92150000  0.18440000  1.0 0.0809199313
H  H53  1  0.45060000  0.52690000  0.55850000  1.0 0.0703024175
H  H54  1  0.96840000  0.89210000  0.44150000  1.0 0.0703024175
H  H55  1  0.89210000  0.45060000  0.92370000  1.0 0.0703024175
H  H56  1  0.52690000  0.96840000  0.07630000  1.0 0.0703024175
H  H57  1  0.52700000  0.55190000  0.71850000  1.0 0.0903305606
H  H58  1  0.83340000  0.80850000  0.28150000  1.0 0.0903305606
H  H59  1  0.80850000  0.52700000  0.97510000  1.0 0.0903305606
H  H60  1  0.55190000  0.83340000  0.02490000  1.0 0.0903305606
H  H61  1  0.43350000  0.38610000  0.57580000  1.0 0.0809199313
H  H62  1  0.81030000  0.85770000  0.42420000  1.0 0.0809199313
H  H63  1  0.85770000  0.43350000  0.04740000  1.0 0.0809199313
H  H64  1  0.38610000  0.81030000  0.95260000  1.0 0.0809199313
H  H65  1  0.35430000  0.38870000  0.69560000  1.0 0.0809199313
H  H66  1  0.69310000  0.65870000  0.30440000  1.0 0.0809199313
H  H67  1  0.65870000  0.35430000  0.96560000  1.0 0.0809199313
H  H68  1  0.38870000  0.69310000  0.03440000  1.0 0.0809199313
H  H69  1  0.20000000  0.21870000  0.61670000  1.0 0.0809199313
H  H70  1  0.60200000  0.58330000  0.38330000  1.0 0.0809199313
H  H71  1  0.58330000  0.20000000  0.98130000  1.0 0.0809199313
H  H72  1  0.21870000  0.60200000  0.01870000  1.0 0.0809199313
H  H73  1  0.29030000  0.22380000  0.63270000  1.0 0.0903305606
H  H74  1  0.59110000  0.65760000  0.36730000  1.0 0.0903305606
H  H75  1  0.65760000  0.29030000  0.06650000  1.0 0.0903305606
H  H76  1  0.22380000  0.59110000  0.93350000  1.0 0.0903305606
H  H77  1  0.43620000  0.27930000  0.58410000  1.0 0.0809199313
H  H78  1  0.69520000  0.85210000  0.41590000  1.0 0.0809199313
H  H79  1  0.85210000  0.43620000  0.15690000  1.0 0.0809199313
H  H80  1  0.27930000  0.69520000  0.84310000  1.0 0.0809199313
H  H81  1  0.58280000  0.30970000  0.61050000  1.0 0.0903305606
H  H82  1  0.69920000  0.97230000  0.38950000  1.0 0.0903305606
H  H83  1  0.97230000  0.58280000  0.27310000  1.0 0.0903305606
H  H84  1  0.30970000  0.69920000  0.72690000  1.0 0.0903305606
H  H85  1  0.67300000  0.47050000  0.75570000  1.0 0.0903305606
H  H86  1  0.71480000  0.91730000  0.24430000  1.0 0.0903305606
H  H87  1  0.91730000  0.67300000  0.20250000  1.0 0.0903305606
H  H88  1  0.47050000  0.71480000  0.79750000  1.0 0.0903305606
H  H89  1  0.27670000  0.54320000  0.66630000  1.0 0.0809199313
H  H90  1  0.87690000  0.61040000  0.33370000  1.0 0.0809199313
H  H91  1  0.61040000  0.27670000  0.73350000  1.0 0.0809199313
H  H92  1  0.54320000  0.87690000  0.26650000  1.0 0.0809199313
H  H93  1  0.51240000  0.33620000  0.78540000  1.0 0.0903305606
H  H94  1  0.55080000  0.72700000  0.21460000  1.0 0.0903305606
H  H95  1  0.72700000  0.51240000  0.17620000  1.0 0.0903305606
H  H96  1  0.33620000  0.55080000  0.82380000  1.0 0.0903305606
H  H97  1  0.50140000  0.22030000  0.83790000  1.0 0.0990069822
H  H98  1  0.38240000  0.66350000  0.16210000  1.0 0.0990069822
H  H99  1  0.66350000  0.50140000  0.28110000  1.0 0.0990069822
H  H100  1  0.22030000  0.38240000  0.71890000  1.0 0.0990069822
H  H101  1  0.44560000  0.13940000  0.75040000  1.0 0.0903305606
H  H102  1  0.38900000  0.69520000  0.24960000  1.0 0.0903305606
H  H103  1  0.69520000  0.44560000  0.30620000  1.0 0.0903305606
H  H104  1  0.13940000  0.38900000  0.69380000  1.0 0.0903305606
H  H105  1  0.27810000  0.34740000  0.44590000  1.0 0.0703024175
H  H106  1  0.90150000  0.83220000  0.55410000  1.0 0.0703024175
H  H107  1  0.83220000  0.27810000  0.93070000  1.0 0.0703024175
H  H108  1  0.34740000  0.90150000  0.06930000  1.0 0.0703024175
H  H109  1  0.30170000  0.48410000  0.44140000  1.0 0.0703024175
H  H110  1  0.04270000  0.86030000  0.55860000  1.0 0.0703024175
H  H111  1  0.86030000  0.30170000  0.81760000  1.0 0.0703024175
H  H112  1  0.48410000  0.04270000  0.18240000  1.0 0.0703024175
H  H113  1  0.26390000  0.42380000  0.27790000  1.0 0.0990069822
H  H114  1  0.14590000  0.98600000  0.72210000  1.0 0.0990069822
H  H115  1  0.98600000  0.26390000  0.84010000  1.0 0.0990069822
H  H116  1  0.42380000  0.14590000  0.15990000  1.0 0.0990069822
H  H117  1  0.12010000  0.39320000  0.33930000  1.0 0.0809199313
H  H118  1  0.05390000  0.78080000  0.66070000  1.0 0.0809199313
H  H119  1  0.78080000  0.12010000  0.72690000  1.0 0.0809199313
H  H120  1  0.39320000  0.05390000  0.27310000  1.0 0.0809199313
H  H121  1  0.11040000  0.24040000  0.25640000  1.0 0.0809199313
H  H122  1  0.98400000  0.85400000  0.74360000  1.0 0.0809199313
H  H123  1  0.85400000  0.11040000  0.87000000  1.0 0.0809199313
H  H124  1  0.24040000  0.98400000  0.13000000  1.0 0.0809199313
H  H125  1  0.96120000  0.11700000  0.27900000  1.0 0.0990069822
H  H126  1  0.83800000  0.68220000  0.72100000  1.0 0.0990069822
H  H127  1  0.68220000  0.96120000  0.84420000  1.0 0.0990069822
H  H128  1  0.11700000  0.83800000  0.15580000  1.0 0.0990069822
H  H129  1  0.94110000  0.16290000  0.22340000  1.0 0.0990069822
H  H130  1  0.93950000  0.71770000  0.77660000  1.0 0.0990069822
H  H131  1  0.71770000  0.94110000  0.77820000  1.0 0.0990069822
H  H132  1  0.16290000  0.93950000  0.22180000  1.0 0.0990069822
H  H133  1  0.01400000  0.38160000  0.26220000  1.0 0.0809199313
H  H134  1  0.11940000  0.75180000  0.73780000  1.0 0.0809199313
H  H135  1  0.75180000  0.01400000  0.63240000  1.0 0.0809199313
H  H136  1  0.38160000  0.11940000  0.36760000  1.0 0.0809199313
H  H137  1  0.99960000  0.44800000  0.17680000  1.0 0.0903305606
H  H138  1  0.27120000  0.82280000  0.82320000  1.0 0.0903305606
H  H139  1  0.82280000  0.99960000  0.55160000  1.0 0.0903305606
H  H140  1  0.44800000  0.27120000  0.44840000  1.0 0.0903305606
H  H141  1  0.09510000  0.41020000  0.09570000  1.0 0.0990069822
H  H142  1  0.31450000  0.99940000  0.90430000  1.0 0.0990069822
H  H143  1  0.99940000  0.09510000  0.68490000  1.0 0.0990069822
H  H144  1  0.41020000  0.31450000  0.31510000  1.0 0.0990069822
H  H145  1  0.30390000  0.26120000  0.42130000  1.0 0.0809199313
H  H146  1  0.83990000  0.88260000  0.57870000  1.0 0.0809199313
H  H147  1  0.88260000  0.30390000  0.04270000  1.0 0.0809199313
H  H148  1  0.26120000  0.83990000  0.95730000  1.0 0.0809199313
H  H149  1  0.97000000  0.22980000  0.09220000  1.0 0.0903305606
H  H150  1  0.13760000  0.87780000  0.90780000  1.0 0.0903305606
H  H151  1  0.87780000  0.97000000  0.74020000  1.0 0.0903305606
H  H152  1  0.22980000  0.13760000  0.25980000  1.0 0.0903305606
H  H153  1  0.80780000  0.09980000  0.98660000  1.0 0.0990069822
H  H154  1  0.11320000  0.82120000  0.01340000  1.0 0.0990069822
H  H155  1  0.82120000  0.80780000  0.70800000  1.0 0.0990069822
H  H156  1  0.09980000  0.11320000  0.29200000  1.0 0.0990069822
H  H157  1  0.75930000  0.12450000  0.03500000  1.0 0.0809199313
H  H158  1  0.08950000  0.72430000  0.96500000  1.0 0.0809199313
H  H159  1  0.72430000  0.75930000  0.63480000  1.0 0.0809199313
H  H160  1  0.12450000  0.08950000  0.36520000  1.0 0.0809199313
C  C1  1  0.36290000  0.49890000  0.62340000  1.0 0.167905949
C  C2  1  0.87550000  0.73950000  0.37660000  1.0 0.167905949
C  C3  1  0.73950000  0.36290000  0.86400000  1.0 0.167905949
C  C4  1  0.49890000  0.87550000  0.13600000  1.0 0.167905949
C  C5  1  0.46390000  0.55340000  0.61510000  1.0 0.0116021115
C  C6  1  0.93830000  0.84880000  0.38490000  1.0 0.0165512494
C  C7  1  0.84880000  0.46390000  0.91050000  1.0 0.0116021115
C  C8  1  0.55340000  0.93830000  0.08950000  1.0 0.0116021115
C  C9  1  0.51530000  0.52720000  0.66210000  1.0 0.0809199313
C  C10  1  0.86510000  0.85320000  0.33790000  1.0 0.0809199313
C  C11  1  0.85320000  0.51530000  0.98810000  1.0 0.0809199313
C  C12  1  0.52720000  0.86510000  0.01190000  1.0 0.0809199313
C  C13  1  0.44440000  0.41280000  0.63160000  1.0 0.0165512494
C  C14  1  0.78120000  0.81280000  0.36840000  1.0 0.0165512494
C  C15  1  0.81280000  0.44440000  0.03160000  1.0 0.0165512494
C  C16  1  0.41280000  0.78120000  0.96840000  1.0 0.0165512494
C  C17  1  0.34170000  0.36350000  0.63900000  1.0 0.0809199313
C  C18  1  0.72450000  0.70270000  0.36100000  1.0 0.0809199313
C  C19  1  0.70270000  0.34170000  0.97820000  1.0 0.0809199313
C  C20  1  0.36350000  0.72450000  0.02180000  1.0 0.0809199313
C  C21  1  0.26200000  0.24630000  0.60610000  1.0 -0.0587185963
C  C22  1  0.64020000  0.65590000  0.39390000  1.0 -0.0587185963
C  C23  1  0.65590000  0.26200000  0.01570000  1.0 -0.0587185963
C  C24  1  0.24630000  0.64020000  0.98430000  1.0 -0.0587185963
C  C25  1  0.48420000  0.31460000  0.64000000  1.0 0.1855974036
C  C26  1  0.67460000  0.84420000  0.36000000  1.0 0.1855974036
C  C27  1  0.84420000  0.48420000  0.16960000  1.0 0.1855974036
C  C28  1  0.31460000  0.67460000  0.83040000  1.0 0.1855974036
C  C29  1  0.58960000  0.36440000  0.64140000  1.0 0.0415741253
C  C30  1  0.72300000  0.94820000  0.35860000  1.0 0.0415741253
C  C31  1  0.94820000  0.58960000  0.22520000  1.0 0.0415741253
C  C32  1  0.36440000  0.72300000  0.77480000  1.0 0.0415741253
C  C33  1  0.66250000  0.41310000  0.72480000  1.0 0.0809199313
C  C34  1  0.68830000  0.93770000  0.27520000  1.0 0.0809199313
C  C35  1  0.93770000  0.66250000  0.24940000  1.0 0.0809199313
C  C36  1  0.41310000  0.68830000  0.75060000  1.0 0.0809199313
C  C37  1  0.33120000  0.57030000  0.71610000  1.0 0.0116021115
C  C38  1  0.85420000  0.61510000  0.28390000  1.0 0.0116021115
C  C39  1  0.61510000  0.33120000  0.76090000  1.0 0.0116021115
C  C40  1  0.57030000  0.85420000  0.23910000  1.0 0.0116021115
C  C41  1  0.50670000  0.28270000  0.75380000  1.0 0.063876147
C  C42  1  0.52890000  0.75290000  0.24620000  1.0 0.063876147
C  C43  1  0.75290000  0.50670000  0.22400000  1.0 0.063876147
C  C44  1  0.28270000  0.52890000  0.77600000  1.0 0.063876147
C  C45  1  0.45550000  0.19430000  0.78420000  1.0 -0.0465251313
C  C46  1  0.41010000  0.67130000  0.21580000  1.0 -0.0465251313
C  C47  1  0.67130000  0.45550000  0.26120000  1.0 -0.0465251313
C  C48  1  0.19430000  0.41010000  0.73880000  1.0 -0.0465251313
C  C49  1  0.24950000  0.34160000  0.39270000  1.0 0.167905949
C  C50  1  0.94890000  0.85680000  0.60730000  1.0 0.167905949
C  C51  1  0.85680000  0.24950000  0.90790000  1.0 0.167905949
C  C52  1  0.34160000  0.94890000  0.09210000  1.0 0.167905949
C  C53  1  0.30300000  0.44930000  0.39550000  1.0 0.0415741253
C  C54  1  0.05380000  0.90750000  0.60450000  1.0 0.0415741253
C  C55  1  0.90750000  0.30300000  0.85370000  1.0 0.0415741253
C  C56  1  0.44930000  0.05380000  0.14630000  1.0 0.0415741253
C  C57  1  0.25000000  0.44530000  0.32170000  1.0 0.0703024175
C  C58  1  0.12360000  0.92830000  0.67830000  1.0 0.0703024175
C  C59  1  0.92830000  0.25000000  0.80470000  1.0 0.0703024175
C  C60  1  0.44530000  0.12360000  0.19530000  1.0 0.0703024175
C  C61  1  0.13620000  0.36850000  0.29970000  1.0 0.0116021115
C  C62  1  0.06880000  0.83650000  0.70030000  1.0 0.0116021115
C  C63  1  0.83650000  0.13620000  0.76770000  1.0 0.0116021115
C  C64  1  0.36850000  0.06880000  0.23230000  1.0 0.0116021115
C  C65  1  0.09340000  0.26400000  0.29600000  1.0 0.0703024175
C  C66  1  0.96800000  0.79740000  0.70400000  1.0 0.0703024175
C  C67  1  0.79740000  0.09340000  0.82940000  1.0 0.0703024175
C  C68  1  0.26400000  0.96800000  0.17060000  1.0 0.0703024175
C  C69  1  0.97960000  0.17950000  0.27710000  1.0 -0.0587185963
C  C70  1  0.90240000  0.70250000  0.72290000  1.0 -0.0587185963
C  C71  1  0.70250000  0.97960000  0.80010000  1.0 -0.0587185963
C  C72  1  0.17950000  0.90240000  0.19990000  1.0 -0.0587185963
C  C73  1  0.01660000  0.36130000  0.21050000  1.0 0.167905949
C  C74  1  0.15080000  0.80610000  0.78950000  1.0 0.167905949
C  C75  1  0.80610000  0.01660000  0.65530000  1.0 0.167905949
C  C76  1  0.36130000  0.15080000  0.34470000  1.0 0.167905949
C  C77  1  0.04930000  0.44220000  0.17890000  1.0 0.0320910901
C  C78  1  0.26330000  0.87040000  0.82110000  1.0 0.0320910901
C  C79  1  0.87040000  0.04930000  0.60710000  1.0 0.0320910901
C  C80  1  0.44220000  0.26330000  0.39290000  1.0 0.0320910901
C  C81  1  0.04160000  0.41020000  0.09520000  1.0 0.0903305606
C  C82  1  0.31500000  0.94640000  0.90480000  1.0 0.0903305606
C  C83  1  0.94640000  0.04160000  0.63140000  1.0 0.0903305606
C  C84  1  0.41020000  0.31500000  0.36860000  1.0 0.0903305606
C  C85  1  0.30280000  0.25600000  0.36700000  1.0 -0.0018306125
C  C86  1  0.88900000  0.93580000  0.63300000  1.0 -0.0018306125
C  C87  1  0.93580000  0.30280000  0.04680000  1.0 -0.0018306125
C  C88  1  0.25600000  0.88900000  0.95320000  1.0 -0.0018306125
C  C89  1  0.91590000  0.22970000  0.08640000  1.0 0.0703024175
C  C90  1  0.14330000  0.82950000  0.91360000  1.0 0.0703024175
C  C91  1  0.82950000  0.91590000  0.68620000  1.0 0.0703024175
C  C92  1  0.22970000  0.14330000  0.31380000  1.0 0.0703024175
C  C93  1  0.81160000  0.12270000  0.04010000  1.0 -0.0587185963
C  C94  1  0.08260000  0.77150000  0.95990000  1.0 -0.0587185963
C  C95  1  0.77150000  0.81160000  0.68890000  1.0 -0.0587185963
C  C96  1  0.12270000  0.08260000  0.31110000  1.0 -0.0587185963
O  O1  1  0.29740000  0.39030000  0.59650000  1.0 -0.3394496826
O  O2  1  0.79380000  0.70090000  0.40350000  1.0 -0.3394496826
O  O3  1  0.70090000  0.29740000  0.90710000  1.0 -0.3394496826
O  O4  1  0.39030000  0.79380000  0.09290000  1.0 -0.3394496826
O  O5  1  0.52720000  0.66100000  0.64120000  1.0 -0.4720611138
O  O6  1  0.01980000  0.88600000  0.35880000  1.0 -0.4720611138
O  O7  1  0.88600000  0.52720000  0.86620000  1.0 -0.4720611138
O  O8  1  0.66100000  0.01980000  0.13380000  1.0 -0.4720611138
O  O9  1  0.61200000  0.57390000  0.65650000  1.0 -0.537752257
O  O10  1  0.91740000  0.95550000  0.34350000  1.0 -0.537752257
O  O11  1  0.95550000  0.61200000  0.03810000  1.0 -0.537752257
O  O12  1  0.57390000  0.91740000  0.96190000  1.0 -0.537752257
O  O13  1  0.48780000  0.38910000  0.67970000  1.0 -0.2788768647
O  O14  1  0.70940000  0.80810000  0.32030000  1.0 -0.2788768647
O  O15  1  0.80810000  0.48780000  0.09870000  1.0 -0.2788768647
O  O16  1  0.38910000  0.70940000  0.90130000  1.0 -0.2788768647
O  O17  1  0.23540000  0.20740000  0.52580000  1.0 -0.4903898624
O  O18  1  0.68160000  0.70960000  0.47420000  1.0 -0.4903898624
O  O19  1  0.70960000  0.23540000  0.02800000  1.0 -0.4903898624
O  O20  1  0.20740000  0.68160000  0.97200000  1.0 -0.4903898624
O  O21  1  0.44430000  0.24140000  0.67470000  1.0 -0.2993652013
O  O22  1  0.56670000  0.76960000  0.32530000  1.0 -0.2993652013
O  O23  1  0.76960000  0.44430000  0.20290000  1.0 -0.2993652013
O  O24  1  0.24140000  0.56670000  0.79710000  1.0 -0.2993652013
O  O25  1  0.76010000  0.45280000  0.72590000  1.0 -0.5284175736
O  O26  1  0.72690000  0.03420000  0.27410000  1.0 -0.5284175736
O  O27  1  0.03420000  0.76010000  0.30730000  1.0 -0.5284175736
O  O28  1  0.45280000  0.72690000  0.69270000  1.0 -0.5284175736
O  O29  1  0.37900000  0.53720000  0.70100000  1.0 -0.2788768647
O  O30  1  0.83620000  0.67800000  0.29900000  1.0 -0.2788768647
O  O31  1  0.67800000  0.37900000  0.84180000  1.0 -0.2788768647
O  O32  1  0.53720000  0.83620000  0.15820000  1.0 -0.2788768647
O  O33  1  0.62650000  0.43770000  0.60540000  1.0 -0.5514673454
O  O34  1  0.83230000  0.02110000  0.39460000  1.0 -0.5514673454
O  O35  1  0.02110000  0.62650000  0.18880000  1.0 -0.5514673454
O  O36  1  0.43770000  0.83230000  0.81120000  1.0 -0.5514673454
O  O37  1  0.35960000  0.15300000  0.78440000  1.0 -0.436136545
O  O38  1  0.36860000  0.57520000  0.21560000  1.0 -0.436136545
O  O39  1  0.57520000  0.35960000  0.20660000  1.0 -0.436136545
O  O40  1  0.15300000  0.36860000  0.79340000  1.0 -0.436136545
O  O41  1  0.14230000  0.27630000  0.37060000  1.0 -0.3394496826
O  O42  1  0.90570000  0.77170000  0.62940000  1.0 -0.3394496826
O  O43  1  0.77170000  0.14230000  0.86600000  1.0 -0.3394496826
O  O44  1  0.27630000  0.90570000  0.13400000  1.0 -0.3394496826
O  O45  1  0.40670000  0.50560000  0.40710000  1.0 -0.5090302391
O  O46  1  0.09850000  0.99960000  0.59290000  1.0 -0.5090302391
O  O47  1  0.99960000  0.40670000  0.90110000  1.0 -0.5090302391
O  O48  1  0.50560000  0.09850000  0.09890000  1.0 -0.5090302391
O  O49  1  0.29210000  0.54520000  0.33210000  1.0 -0.4903898624
O  O50  1  0.21310000  0.96000000  0.66790000  1.0 -0.4903898624
O  O51  1  0.96000000  0.29210000  0.74690000  1.0 -0.4903898624
O  O52  1  0.54520000  0.21310000  0.25310000  1.0 -0.4903898624
O  O53  1  0.09310000  0.36150000  0.22480000  1.0 -0.2993652013
O  O54  1  0.13670000  0.86830000  0.77520000  1.0 -0.2993652013
O  O55  1  0.86830000  0.09310000  0.73160000  1.0 -0.2993652013
O  O56  1  0.36150000  0.13670000  0.26840000  1.0 -0.2993652013
O  O57  1  0.95150000  0.21040000  0.33150000  1.0 -0.4903898624
O  O58  1  0.87890000  0.62000000  0.66850000  1.0 -0.4903898624
O  O59  1  0.62000000  0.95150000  0.74110000  1.0 -0.4903898624
O  O60  1  0.21040000  0.87890000  0.25890000  1.0 -0.4903898624
O  O61  1  0.91810000  0.26410000  0.16200000  1.0 -0.2860623014
O  O62  1  0.10210000  0.75610000  0.83800000  1.0 -0.2860623014
O  O63  1  0.75610000  0.91810000  0.65400000  1.0 -0.2860623014
O  O64  1  0.26410000  0.10210000  0.34600000  1.0 -0.2860623014
O  O65  1  0.14730000  0.53920000  0.22770000  1.0 -0.5090302391
O  O66  1  0.31150000  0.91960000  0.77230000  1.0 -0.5090302391
O  O67  1  0.91960000  0.14730000  0.60810000  1.0 -0.5090302391
O  O68  1  0.53920000  0.31150000  0.39190000  1.0 -0.5090302391
O  O69  1  0.05840000  0.48160000  0.06300000  1.0 -0.5514673454
O  O70  1  0.41860000  0.99540000  0.93700000  1.0 -0.5514673454
O  O71  1  0.99540000  0.05840000  0.57680000  1.0 -0.5514673454
O  O72  1  0.48160000  0.41860000  0.42320000  1.0 -0.5514673454
O  O73  1  0.27140000  0.30100000  0.33880000  1.0 -0.2606040699
O  O74  1  0.96220000  0.93260000  0.66120000  1.0 -0.2606040699
O  O75  1  0.93260000  0.27140000  0.97040000  1.0 -0.2606040699
O  O76  1  0.30100000  0.96220000  0.02960000  1.0 -0.2606040699
O  O77  1  0.78610000  0.04960000  0.07210000  1.0 -0.4299755109
O  O78  1  0.97750000  0.71400000  0.92790000  1.0 -0.4299755109
O  O79  1  0.71400000  0.78610000  0.73650000  1.0 -0.4299755109
O  O80  1  0.04960000  0.97750000  0.26350000  1.0 -0.4299755109
