# DDEC6 charges by PACMAN v1.1 (https://github.com/mtap-research/PACMAN-charge/)
data_YAPTIW_ASR_pacman
_symmetry_space_group_name_H-M   'P 1'
_cell_length_a   17.88780000
_cell_length_b   16.01150000
_cell_length_c   22.65030000
_cell_angle_alpha   90.00000000
_cell_angle_beta   112.97800000
_cell_angle_gamma   90.00000000
_symmetry_Int_Tables_number   1
_chemical_formula_structural   U2H28C19O12
_chemical_formula_sum   'U8 H112 C76 O48'
_cell_volume   5972.54922501
_cell_formula_units_Z   4
loop_
 _symmetry_equiv_pos_site_id
 _symmetry_equiv_pos_as_xyz
  1  'x, y, z'
loop_
 _atom_site_type_symbol
 _atom_site_label
 _atom_site_symmetry_multiplicity
 _atom_site_fract_x
 _atom_site_fract_y
 _atom_site_fract_z
 _atom_site_occupancy
 _atom_site_charge
U  U1  1  0.50206000  0.19950000  0.91468000  1.0 2.0731636415
U  U2  1  0.02563000  0.79654000  0.92650000  1.0 1.9202661246
U  U3  1  0.49794000  0.80050000  0.08532000  1.0 2.0731636415
U  U4  1  0.97437000  0.20346000  0.07350000  1.0 1.9202661246
U  U5  1  0.49794000  0.69950000  0.58532000  1.0 2.0608102212
U  U6  1  0.97437000  0.29654000  0.57350000  1.0 1.9146015773
U  U7  1  0.50206000  0.30050000  0.41468000  1.0 2.0731636415
U  U8  1  0.02563000  0.70346000  0.42650000  1.0 1.9202661246
H  H1  1  0.31812000  0.10330000  0.00389000  1.0 0.110988327
H  H2  1  0.25560000  0.11440000  0.93146000  1.0 0.120657781
H  H3  1  0.26060000  0.97675000  0.97675000  1.0 0.0644481982
H  H4  1  0.34808000  0.96568000  0.97429000  1.0 0.0808098344
H  H5  1  0.20435000  0.99227000  0.86184000  1.0 0.0808098344
H  H6  1  0.29208000  0.97026000  0.86251000  1.0 0.0883583751
H  H7  1  0.28459000  0.83891000  0.91540000  1.0 0.1028462542
H  H8  1  0.22590000  0.84513000  0.84135000  1.0 0.110988327
H  H9  1  0.69524000  0.00272000  0.91321000  1.0 0.110988327
H  H10  1  0.65747000  0.01991000  0.83770000  1.0 0.1263814325
H  H11  1  0.77752000  0.12626000  0.92662000  1.0 0.0808098344
H  H12  1  0.74432000  0.13370000  0.85014000  1.0 0.0808098344
H  H13  1  0.80090000  0.99843000  0.84725000  1.0 0.0686139612
H  H14  1  0.86824000  0.06744000  0.88241000  1.0 0.0808098344
H  H15  1  0.81157000  0.94907000  0.95059000  1.0 0.110988327
H  H16  1  0.88337000  0.01469000  0.98361000  1.0 0.1263814325
H  H17  1  0.52326000  0.49467000  0.88981000  1.0 0.120657781
H  H18  1  0.59544000  0.48158000  0.95826000  1.0 0.120657781
H  H19  1  0.49326000  0.57385000  0.96223000  1.0 0.0808098344
H  H20  1  0.42946000  0.49856000  0.94095000  1.0 0.0808098344
H  H21  1  0.01438000  0.49906000  0.93286000  1.0 0.0440788287
H  H22  1  0.92665000  0.52230000  0.88032000  1.0 0.110988327
H  H23  1  0.92084000  0.45262000  0.96488000  1.0 0.0883583751
H  H24  1  0.87875000  0.54125000  0.95610000  1.0 0.0440788287
H  H25  1  0.94278000  0.51753000  0.87915000  1.0 0.110988327
H  H26  1  0.92278000  0.52581000  0.94188000  1.0 0.0440788287
H  H27  1  0.07861000  0.49255000  0.94429000  1.0 0.0686139612
H  H28  1  0.01787000  0.42383000  0.95123000  1.0 0.1028462542
H  H29  1  0.68188000  0.89670000  0.99611000  1.0 0.110988327
H  H30  1  0.74440000  0.88560000  0.06854000  1.0 0.120657781
H  H31  1  0.73940000  0.02325000  0.02325000  1.0 0.0644481982
H  H32  1  0.65192000  0.03432000  0.02571000  1.0 0.0808098344
H  H33  1  0.79565000  0.00773000  0.13816000  1.0 0.0808098344
H  H34  1  0.70792000  0.02974000  0.13749000  1.0 0.0883583751
H  H35  1  0.71541000  0.16109000  0.08460000  1.0 0.1028462542
H  H36  1  0.77410000  0.15487000  0.15865000  1.0 0.110988327
H  H37  1  0.30476000  0.99728000  0.08679000  1.0 0.110988327
H  H38  1  0.34253000  0.98009000  0.16230000  1.0 0.1263814325
H  H39  1  0.22248000  0.87374000  0.07338000  1.0 0.0808098344
H  H40  1  0.25568000  0.86630000  0.14986000  1.0 0.0808098344
H  H41  1  0.19910000  0.00157000  0.15275000  1.0 0.0686139612
H  H42  1  0.13176000  0.93256000  0.11759000  1.0 0.0808098344
H  H43  1  0.18843000  0.05093000  0.04941000  1.0 0.110988327
H  H44  1  0.11663000  0.98531000  0.01639000  1.0 0.1263814325
H  H45  1  0.47674000  0.50533000  0.11019000  1.0 0.120657781
H  H46  1  0.40456000  0.51842000  0.04174000  1.0 0.120657781
H  H47  1  0.50674000  0.42615000  0.03777000  1.0 0.0808098344
H  H48  1  0.57054000  0.50144000  0.05905000  1.0 0.0808098344
H  H49  1  0.98562000  0.50094000  0.06714000  1.0 0.0440788287
H  H50  1  0.07335000  0.47770000  0.11968000  1.0 0.110988327
H  H51  1  0.07916000  0.54738000  0.03512000  1.0 0.0883583751
H  H52  1  0.12125000  0.45875000  0.04390000  1.0 0.0469828712
H  H53  1  0.05722000  0.48247000  0.12085000  1.0 0.110988327
H  H54  1  0.07722000  0.47419000  0.05812000  1.0 0.0440788287
H  H55  1  0.92139000  0.50745000  0.05571000  1.0 0.0686139612
H  H56  1  0.98213000  0.57617000  0.04877000  1.0 0.110988327
H  H57  1  0.68188000  0.60330000  0.49611000  1.0 0.110988327
H  H58  1  0.74440000  0.61440000  0.56854000  1.0 0.120657781
H  H59  1  0.73940000  0.47675000  0.52325000  1.0 0.0644481982
H  H60  1  0.65192000  0.46568000  0.52571000  1.0 0.0808098344
H  H61  1  0.79565000  0.49227000  0.63816000  1.0 0.0808098344
H  H62  1  0.70792000  0.47026000  0.63749000  1.0 0.0883583751
H  H63  1  0.71541000  0.33891000  0.58460000  1.0 0.1028462542
H  H64  1  0.77410000  0.34513000  0.65865000  1.0 0.110988327
H  H65  1  0.30476000  0.50272000  0.58679000  1.0 0.110988327
H  H66  1  0.34253000  0.51991000  0.66230000  1.0 0.1263814325
H  H67  1  0.22248000  0.62626000  0.57338000  1.0 0.0808098344
H  H68  1  0.25568000  0.63370000  0.64986000  1.0 0.0808098344
H  H69  1  0.19910000  0.49843000  0.65275000  1.0 0.0686139612
H  H70  1  0.13176000  0.56744000  0.61759000  1.0 0.0808098344
H  H71  1  0.18843000  0.44907000  0.54941000  1.0 0.110988327
H  H72  1  0.11663000  0.51469000  0.51639000  1.0 0.1263814325
H  H73  1  0.47674000  0.99467000  0.61019000  1.0 0.120657781
H  H74  1  0.40456000  0.98158000  0.54174000  1.0 0.120657781
H  H75  1  0.50674000  0.07385000  0.53777000  1.0 0.0808098344
H  H76  1  0.57054000  0.99856000  0.55905000  1.0 0.0808098344
H  H77  1  0.98562000  0.99906000  0.56714000  1.0 0.0440788287
H  H78  1  0.07335000  0.02230000  0.61968000  1.0 0.110988327
H  H79  1  0.07916000  0.95262000  0.53512000  1.0 0.0883583751
H  H80  1  0.12125000  0.04125000  0.54390000  1.0 0.0469828712
H  H81  1  0.05722000  0.01753000  0.62085000  1.0 0.110988327
H  H82  1  0.07722000  0.02581000  0.55812000  1.0 0.0440788287
H  H83  1  0.92139000  0.99255000  0.55571000  1.0 0.0686139612
H  H84  1  0.98213000  0.92383000  0.54877000  1.0 0.110988327
H  H85  1  0.31812000  0.39670000  0.50389000  1.0 0.110988327
H  H86  1  0.25560000  0.38560000  0.43146000  1.0 0.120657781
H  H87  1  0.26060000  0.52325000  0.47675000  1.0 0.0644481982
H  H88  1  0.34808000  0.53432000  0.47429000  1.0 0.0808098344
H  H89  1  0.20435000  0.50773000  0.36184000  1.0 0.0808098344
H  H90  1  0.29208000  0.52974000  0.36251000  1.0 0.0883583751
H  H91  1  0.28459000  0.66109000  0.41540000  1.0 0.1028462542
H  H92  1  0.22590000  0.65487000  0.34135000  1.0 0.110988327
H  H93  1  0.69524000  0.49728000  0.41321000  1.0 0.110988327
H  H94  1  0.65747000  0.48009000  0.33770000  1.0 0.1263814325
H  H95  1  0.77752000  0.37374000  0.42662000  1.0 0.0808098344
H  H96  1  0.74432000  0.36630000  0.35014000  1.0 0.0808098344
H  H97  1  0.80090000  0.50157000  0.34725000  1.0 0.0686139612
H  H98  1  0.86824000  0.43256000  0.38241000  1.0 0.0808098344
H  H99  1  0.81157000  0.55093000  0.45059000  1.0 0.110988327
H  H100  1  0.88337000  0.48531000  0.48361000  1.0 0.1263814325
H  H101  1  0.52326000  0.00533000  0.38981000  1.0 0.120657781
H  H102  1  0.59544000  0.01842000  0.45826000  1.0 0.120657781
H  H103  1  0.49326000  0.92615000  0.46223000  1.0 0.0808098344
H  H104  1  0.42946000  0.00144000  0.44095000  1.0 0.0808098344
H  H105  1  0.01438000  0.00094000  0.43286000  1.0 0.0440788287
H  H106  1  0.92665000  0.97770000  0.38032000  1.0 0.110988327
H  H107  1  0.92084000  0.04738000  0.46488000  1.0 0.0883583751
H  H108  1  0.87875000  0.95875000  0.45610000  1.0 0.0469828712
H  H109  1  0.94278000  0.98247000  0.37915000  1.0 0.110988327
H  H110  1  0.92278000  0.97419000  0.44188000  1.0 0.0440788287
H  H111  1  0.07861000  0.00745000  0.44429000  1.0 0.0686139612
H  H112  1  0.01787000  0.07617000  0.45123000  1.0 0.1028462542
C  C1  1  0.37380000  0.12280000  0.94190000  1.0 0.6087171266
C  C2  1  0.30720000  0.08730000  0.95910000  1.0 -0.3127696534
C  C3  1  0.29470000  0.99330000  0.95320000  1.0 -0.1580452007
C  C4  1  0.25520000  0.96100000  0.88500000  1.0 -0.1580452007
C  C5  1  0.23610000  0.86770000  0.88450000  1.0 -0.3127696534
C  C6  1  0.16410000  0.84670000  0.90110000  1.0 0.5929095874
C  C7  1  0.61640000  0.10210000  0.88790000  1.0 0.5999943073
C  C8  1  0.68060000  0.04720000  0.88030000  1.0 -0.3204474618
C  C9  1  0.75730000  0.09380000  0.88620000  1.0 -0.1482989119
C  C10  1  0.82320000  0.03450000  0.88570000  1.0 -0.1408845951
C  C11  1  0.85690000  0.97910000  0.94530000  1.0 -0.339234898
C  C12  1  0.91720000  0.91690000  0.94110000  1.0 0.5999943073
C  C13  1  0.52550000  0.37600000  0.92570000  1.0 0.6217425893
C  C14  1  0.53730000  0.46990000  0.93290000  1.0 -0.3318632637
C  C15  1  0.48740000  0.51260000  0.96470000  1.0 -0.1921319932
C  C16  1  0.99010000  0.62300000  0.93090000  1.0 0.5364678631
C  C17  1  0.96670000  0.53380000  0.92620000  1.0 -0.1802137812
C  C18  1  0.93090000  0.50930000  0.97180000  1.0 -0.1482989119
C  C19  1  0.03500000  0.47840000  0.96050000  1.0 -0.1689432954
C  C20  1  0.62620000  0.87720000  0.05810000  1.0 0.6087171266
C  C21  1  0.69280000  0.91270000  0.04090000  1.0 -0.3127696534
C  C22  1  0.70530000  0.00670000  0.04680000  1.0 -0.1580452007
C  C23  1  0.74480000  0.03900000  0.11500000  1.0 -0.1580452007
C  C24  1  0.76390000  0.13230000  0.11550000  1.0 -0.3127696534
C  C25  1  0.83590000  0.15330000  0.09890000  1.0 0.5929095874
C  C26  1  0.38360000  0.89790000  0.11210000  1.0 0.5999943073
C  C27  1  0.31940000  0.95280000  0.11970000  1.0 -0.3204474618
C  C28  1  0.24270000  0.90620000  0.11380000  1.0 -0.1482989119
C  C29  1  0.17680000  0.96550000  0.11430000  1.0 -0.1408845951
C  C30  1  0.14310000  0.02090000  0.05470000  1.0 -0.339234898
C  C31  1  0.08280000  0.08310000  0.05890000  1.0 0.5999943073
C  C32  1  0.47450000  0.62400000  0.07430000  1.0 0.6217425893
C  C33  1  0.46270000  0.53010000  0.06710000  1.0 -0.3318632637
C  C34  1  0.51260000  0.48740000  0.03530000  1.0 -0.1921319932
C  C35  1  0.00990000  0.37700000  0.06910000  1.0 0.5364678631
C  C36  1  0.03330000  0.46620000  0.07380000  1.0 -0.1921319932
C  C37  1  0.06910000  0.49070000  0.02820000  1.0 -0.1482989119
C  C38  1  0.96500000  0.52160000  0.03950000  1.0 -0.1689432954
C  C39  1  0.62620000  0.62280000  0.55810000  1.0 0.6087171266
C  C40  1  0.69280000  0.58730000  0.54090000  1.0 -0.3127696534
C  C41  1  0.70530000  0.49330000  0.54680000  1.0 -0.1580452007
C  C42  1  0.74480000  0.46100000  0.61500000  1.0 -0.1580452007
C  C43  1  0.76390000  0.36770000  0.61550000  1.0 -0.3127696534
C  C44  1  0.83590000  0.34670000  0.59890000  1.0 0.5929095874
C  C45  1  0.38360000  0.60210000  0.61210000  1.0 0.5999943073
C  C46  1  0.31940000  0.54720000  0.61970000  1.0 -0.3204474618
C  C47  1  0.24270000  0.59380000  0.61380000  1.0 -0.1482989119
C  C48  1  0.17680000  0.53450000  0.61430000  1.0 -0.1408845951
C  C49  1  0.14310000  0.47910000  0.55470000  1.0 -0.339234898
C  C50  1  0.08280000  0.41690000  0.55890000  1.0 0.5999943073
C  C51  1  0.47450000  0.87600000  0.57430000  1.0 0.6217425893
C  C52  1  0.46270000  0.96990000  0.56710000  1.0 -0.3318632637
C  C53  1  0.51260000  0.01260000  0.53530000  1.0 -0.1921319932
C  C54  1  0.00990000  0.12300000  0.56910000  1.0 0.5342180858
C  C55  1  0.03330000  0.03380000  0.57380000  1.0 -0.1802137812
C  C56  1  0.06910000  0.00930000  0.52820000  1.0 -0.1482989119
C  C57  1  0.96500000  0.97840000  0.53950000  1.0 -0.1689432954
C  C58  1  0.37380000  0.37720000  0.44190000  1.0 0.6087171266
C  C59  1  0.30720000  0.41270000  0.45910000  1.0 -0.3127696534
C  C60  1  0.29470000  0.50670000  0.45320000  1.0 -0.1580452007
C  C61  1  0.25520000  0.53900000  0.38500000  1.0 -0.1580452007
C  C62  1  0.23610000  0.63230000  0.38450000  1.0 -0.3127696534
C  C63  1  0.16410000  0.65330000  0.40110000  1.0 0.5929095874
C  C64  1  0.61640000  0.39790000  0.38790000  1.0 0.5999943073
C  C65  1  0.68060000  0.45280000  0.38030000  1.0 -0.3204474618
C  C66  1  0.75730000  0.40620000  0.38620000  1.0 -0.1482989119
C  C67  1  0.82320000  0.46550000  0.38570000  1.0 -0.1408845951
C  C68  1  0.85690000  0.52090000  0.44530000  1.0 -0.339234898
C  C69  1  0.91720000  0.58310000  0.44110000  1.0 0.5999943073
C  C70  1  0.52550000  0.12400000  0.42570000  1.0 0.6217425893
C  C71  1  0.53730000  0.03010000  0.43290000  1.0 -0.3318632637
C  C72  1  0.48740000  0.98740000  0.46470000  1.0 -0.1921319932
C  C73  1  0.99010000  0.87700000  0.43090000  1.0 0.5364678631
C  C74  1  0.96670000  0.96620000  0.42620000  1.0 -0.1921319932
C  C75  1  0.93090000  0.99070000  0.47180000  1.0 -0.1482989119
C  C76  1  0.03500000  0.02160000  0.46050000  1.0 -0.1689432954
O  O1  1  0.38790000  0.20160000  0.94920000  1.0 -0.5991722379
O  O2  1  0.41750000  0.07880000  0.92170000  1.0 -0.5876819481
O  O3  1  0.15110000  0.76980000  0.90930000  1.0 -0.5991722379
O  O4  1  0.11560000  0.90190000  0.90480000  1.0 -0.5876819481
O  O5  1  0.55690000  0.06760000  0.89530000  1.0 -0.574429365
O  O6  1  0.62050000  0.18040000  0.88670000  1.0 -0.5561383983
O  O7  1  0.97910000  0.94010000  0.93080000  1.0 -0.5876819481
O  O8  1  0.90680000  0.83980000  0.94710000  1.0 -0.5991722379
O  O9  1  0.57420000  0.33040000  0.91590000  1.0 -0.574429365
O  O10  1  0.45720000  0.34420000  0.92410000  1.0 -0.6423388739
O  O11  1  0.94590000  0.67930000  0.94030000  1.0 -0.6423388739
O  O12  1  0.05360000  0.64760000  0.92280000  1.0 -0.6486260464
O  O13  1  0.61210000  0.79840000  0.05080000  1.0 -0.5991722379
O  O14  1  0.58250000  0.92120000  0.07830000  1.0 -0.5876819481
O  O15  1  0.84890000  0.23020000  0.09070000  1.0 -0.6059432497
O  O16  1  0.88440000  0.09810000  0.09520000  1.0 -0.5876819481
O  O17  1  0.44310000  0.93240000  0.10470000  1.0 -0.574429365
O  O18  1  0.37950000  0.81960000  0.11330000  1.0 -0.5561383983
O  O19  1  0.02090000  0.05990000  0.06920000  1.0 -0.5876819481
O  O20  1  0.09320000  0.16020000  0.05290000  1.0 -0.5991722379
O  O21  1  0.42580000  0.66960000  0.08410000  1.0 -0.574429365
O  O22  1  0.54280000  0.65580000  0.07590000  1.0 -0.6423388739
O  O23  1  0.05410000  0.32070000  0.05970000  1.0 -0.6423388739
O  O24  1  0.94640000  0.35240000  0.07720000  1.0 -0.6486260464
O  O25  1  0.61210000  0.70160000  0.55080000  1.0 -0.5991722379
O  O26  1  0.58250000  0.57880000  0.57830000  1.0 -0.5849467387
O  O27  1  0.84890000  0.26980000  0.59070000  1.0 -0.5991722379
O  O28  1  0.88440000  0.40190000  0.59520000  1.0 -0.5876819481
O  O29  1  0.44310000  0.56760000  0.60470000  1.0 -0.574429365
O  O30  1  0.37950000  0.68040000  0.61330000  1.0 -0.5561383983
O  O31  1  0.02090000  0.44010000  0.56920000  1.0 -0.5876819481
O  O32  1  0.09320000  0.33980000  0.55290000  1.0 -0.5991722379
O  O33  1  0.42580000  0.83040000  0.58410000  1.0 -0.574429365
O  O34  1  0.54280000  0.84420000  0.57590000  1.0 -0.6423388739
O  O35  1  0.05410000  0.17930000  0.55970000  1.0 -0.6423388739
O  O36  1  0.94640000  0.14760000  0.57720000  1.0 -0.6486260464
O  O37  1  0.38790000  0.29840000  0.44920000  1.0 -0.5991722379
O  O38  1  0.41750000  0.42120000  0.42170000  1.0 -0.5876819481
O  O39  1  0.15110000  0.73020000  0.40930000  1.0 -0.5991722379
O  O40  1  0.11560000  0.59810000  0.40480000  1.0 -0.5876819481
O  O41  1  0.55690000  0.43240000  0.39530000  1.0 -0.574429365
O  O42  1  0.62050000  0.31960000  0.38670000  1.0 -0.5561383983
O  O43  1  0.97910000  0.55990000  0.43080000  1.0 -0.5849467387
O  O44  1  0.90680000  0.66020000  0.44710000  1.0 -0.5991722379
O  O45  1  0.57420000  0.16960000  0.41590000  1.0 -0.574429365
O  O46  1  0.45720000  0.15580000  0.42410000  1.0 -0.6423388739
O  O47  1  0.94590000  0.82070000  0.44030000  1.0 -0.6423388739
O  O48  1  0.05360000  0.85240000  0.42280000  1.0 -0.6486260464
