# DDEC6 charges by PACMAN v1.1 (https://github.com/mtap-research/PACMAN-charge/)
data_YARBAW_ASR_pacman
_symmetry_space_group_name_H-M   'P 1'
_cell_length_a   13.28360000
_cell_length_b   13.28360000
_cell_length_c   13.26500000
_cell_angle_alpha   61.12990000
_cell_angle_beta   118.87000000
_cell_angle_gamma   94.24650000
_symmetry_Int_Tables_number   1
_chemical_formula_structural   NiH26C35(NO3)2
_chemical_formula_sum   'Ni2 H52 C70 N4 O12'
_cell_volume   1755.96741330
_cell_formula_units_Z   2
loop_
 _symmetry_equiv_pos_site_id
 _symmetry_equiv_pos_as_xyz
  1  'x, y, z'
loop_
 _atom_site_type_symbol
 _atom_site_label
 _atom_site_symmetry_multiplicity
 _atom_site_fract_x
 _atom_site_fract_y
 _atom_site_fract_z
 _atom_site_occupancy
 _atom_site_charge
Ni  Ni1  1  0.00000000  0.00000000  0.50000000  1.0 0.6745932571
Ni  Ni2  1  0.00000000  0.00000000  0.00000000  1.0 0.6800785534
H  H1  1  0.19640000  0.68080000  0.50830000  1.0 0.3386090569
H  H2  1  0.68080000  0.19640000  0.99170000  1.0 0.3386090569
H  H3  1  0.80360000  0.31920000  0.49170000  1.0 0.3386090569
H  H4  1  0.31920000  0.80360000  0.00830000  1.0 0.3386090569
H  H5  1  0.35980000  0.83640000  0.75610000  1.0 0.1286319405
H  H6  1  0.83640000  0.35980000  0.74390000  1.0 0.1286319405
H  H7  1  0.64020000  0.16360000  0.24390000  1.0 0.1286319405
H  H8  1  0.16360000  0.64020000  0.25610000  1.0 0.1286319405
H  H9  1  0.55120000  0.78040000  0.95960000  1.0 0.1286319405
H  H10  1  0.78040000  0.55120000  0.54040000  1.0 0.1286319405
H  H11  1  0.44880000  0.21960000  0.04040000  1.0 0.1286319405
H  H12  1  0.21960000  0.44880000  0.45960000  1.0 0.1286319405
H  H13  1  0.73130000  0.65590000  0.12450000  1.0 0.1169362201
H  H14  1  0.65590000  0.73130000  0.37550000  1.0 0.1169362201
H  H15  1  0.26870000  0.34410000  0.87550000  1.0 0.1169362201
H  H16  1  0.34410000  0.26870000  0.62450000  1.0 0.1169362201
H  H17  1  0.78130000  0.49350000  0.12340000  1.0 0.1169362201
H  H18  1  0.49350000  0.78130000  0.37660000  1.0 0.1169362201
H  H19  1  0.21870000  0.50650000  0.87660000  1.0 0.1169362201
H  H20  1  0.50650000  0.21870000  0.62340000  1.0 0.1169362201
H  H21  1  0.65470000  0.45450000  0.96290000  1.0 0.1105859916
H  H22  1  0.45450000  0.65470000  0.53710000  1.0 0.1105859916
H  H23  1  0.34530000  0.54550000  0.03710000  1.0 0.1105859916
H  H24  1  0.54550000  0.34530000  0.46290000  1.0 0.1105859916
H  H25  1  0.40110000  0.47190000  0.67190000  1.0 0.1169362201
H  H26  1  0.47190000  0.40110000  0.82810000  1.0 0.1169362201
H  H27  1  0.59890000  0.52810000  0.32810000  1.0 0.1169362201
H  H28  1  0.52810000  0.59890000  0.17190000  1.0 0.1169362201
H  H29  1  0.18780000  0.13420000  0.46250000  1.0 0.1105859916
H  H30  1  0.13420000  0.18780000  0.03750000  1.0 0.1105859916
H  H31  1  0.81220000  0.86580000  0.53750000  1.0 0.1105859916
H  H32  1  0.86580000  0.81220000  0.96250000  1.0 0.1105859916
H  H33  1  0.20670000  0.29670000  0.30370000  1.0 0.1365803353
H  H34  1  0.29670000  0.20670000  0.19630000  1.0 0.1365803353
H  H35  1  0.79330000  0.70330000  0.69630000  1.0 0.1365803353
H  H36  1  0.70330000  0.79330000  0.80370000  1.0 0.1365803353
H  H37  1  0.86270000  0.36170000  0.05300000  1.0 0.1286319405
H  H38  1  0.36170000  0.86270000  0.44700000  1.0 0.1286319405
H  H39  1  0.13730000  0.63830000  0.94700000  1.0 0.1286319405
H  H40  1  0.63830000  0.13730000  0.55300000  1.0 0.1286319405
H  H41  1  0.85040000  0.19940000  0.21830000  1.0 0.1105859916
H  H42  1  0.19940000  0.85040000  0.28170000  1.0 0.1105859916
H  H43  1  0.14960000  0.80060000  0.78170000  1.0 0.1105859916
H  H44  1  0.80060000  0.14960000  0.71830000  1.0 0.1105859916
H  H45  1  0.11300000  0.48500000  0.09640000  1.0 0.1169362201
H  H46  1  0.48500000  0.11300000  0.40360000  1.0 0.1169362201
H  H47  1  0.88700000  0.51500000  0.90360000  1.0 0.1169362201
H  H48  1  0.51500000  0.88700000  0.59640000  1.0 0.1169362201
H  H49  1  0.07510000  0.42590000  0.01000000  1.0 0.1286319405
H  H50  1  0.42590000  0.07510000  0.49000000  1.0 0.1286319405
H  H51  1  0.92490000  0.57410000  0.99000000  1.0 0.1286319405
H  H52  1  0.57410000  0.92490000  0.51000000  1.0 0.1286319405
C  C1  1  0.18210000  0.82870000  0.55790000  1.0 0.5679436795
C  C2  1  0.82870000  0.18210000  0.94210000  1.0 0.5679436795
C  C3  1  0.81790000  0.17130000  0.44210000  1.0 0.5679436795
C  C4  1  0.17130000  0.81790000  0.05790000  1.0 0.5679436795
C  C5  1  0.38060000  0.77180000  0.75520000  1.0 -0.1491064258
C  C6  1  0.77180000  0.38060000  0.74480000  1.0 -0.1491064258
C  C7  1  0.61940000  0.22820000  0.24480000  1.0 -0.1491064258
C  C8  1  0.22820000  0.61940000  0.25520000  1.0 -0.1491064258
C  C9  1  0.30340000  0.75040000  0.65890000  1.0 -0.1491064258
C  C10  1  0.75040000  0.30340000  0.84110000  1.0 -0.1491064258
C  C11  1  0.69660000  0.24960000  0.34110000  1.0 -0.1491064258
C  C12  1  0.24960000  0.69660000  0.15890000  1.0 -0.1491064258
C  C13  1  0.33420000  0.65280000  0.65590000  1.0 0.1975042916
C  C14  1  0.65280000  0.33420000  0.84410000  1.0 0.1975042916
C  C15  1  0.66580000  0.34720000  0.34410000  1.0 0.1975042916
C  C16  1  0.34720000  0.66580000  0.15590000  1.0 0.1975042916
C  C17  1  0.44400000  0.57760000  0.75120000  1.0 -0.029773086
C  C18  1  0.57760000  0.44400000  0.74880000  1.0 -0.029773086
C  C19  1  0.55600000  0.42240000  0.24880000  1.0 -0.029773086
C  C20  1  0.42240000  0.55600000  0.25120000  1.0 -0.029773086
C  C21  1  0.52310000  0.59790000  0.85340000  1.0 0.0408205635
C  C22  1  0.59790000  0.52310000  0.64660000  1.0 0.0408205635
C  C23  1  0.47690000  0.40210000  0.14660000  1.0 0.0408205635
C  C24  1  0.40210000  0.47690000  0.35340000  1.0 0.0408205635
C  C25  1  0.49290000  0.69770000  0.85500000  1.0 0.0523679912
C  C26  1  0.69770000  0.49290000  0.64500000  1.0 0.0523679912
C  C27  1  0.50710000  0.30230000  0.14500000  1.0 0.0523679912
C  C28  1  0.30230000  0.50710000  0.35500000  1.0 0.0523679912
C  C29  1  0.57160000  0.71600000  0.95780000  1.0 -0.1411936261
C  C30  1  0.71600000  0.57160000  0.54220000  1.0 -0.1411936261
C  C31  1  0.42840000  0.28400000  0.04220000  1.0 -0.1411936261
C  C32  1  0.28400000  0.42840000  0.45780000  1.0 -0.1411936261
C  C33  1  0.67890000  0.64130000  0.05730000  1.0 -0.1029575743
C  C34  1  0.64130000  0.67890000  0.44270000  1.0 -0.1029575743
C  C35  1  0.32110000  0.35870000  0.94270000  1.0 -0.1029575743
C  C36  1  0.35870000  0.32110000  0.55730000  1.0 -0.1029575743
C  C37  1  0.70850000  0.54410000  0.05630000  1.0 -0.1056696416
C  C38  1  0.54410000  0.70850000  0.44370000  1.0 -0.1056696416
C  C39  1  0.29150000  0.45590000  0.94370000  1.0 -0.1056696416
C  C40  1  0.45590000  0.29150000  0.55630000  1.0 -0.1056696416
C  C41  1  0.63350000  0.52150000  0.95970000  1.0 -0.1411936261
C  C42  1  0.52150000  0.63350000  0.54030000  1.0 -0.1411936261
C  C43  1  0.36650000  0.47850000  0.04030000  1.0 -0.1411936261
C  C44  1  0.47850000  0.36650000  0.45970000  1.0 -0.1411936261
C  C45  1  0.46840000  0.46840000  0.75000000  1.0 -0.2591757902
C  C46  1  0.53160000  0.53160000  0.25000000  1.0 -0.2591757902
C  C47  1  0.12130000  0.18070000  0.37900000  1.0 0.0805786367
C  C48  1  0.18070000  0.12130000  0.12100000  1.0 0.0805786367
C  C49  1  0.87870000  0.81930000  0.62100000  1.0 0.0805786367
C  C50  1  0.81930000  0.87870000  0.87900000  1.0 0.0805786367
C  C51  1  0.13310000  0.27790000  0.28330000  1.0 -0.2091980555
C  C52  1  0.27790000  0.13310000  0.21670000  1.0 -0.2091980555
C  C53  1  0.86690000  0.72210000  0.71670000  1.0 -0.2091980555
C  C54  1  0.72210000  0.86690000  0.78330000  1.0 -0.2091980555
C  C55  1  0.03710000  0.34810000  0.15740000  1.0 0.1656353644
C  C56  1  0.34810000  0.03710000  0.34260000  1.0 0.1656353644
C  C57  1  0.96290000  0.65190000  0.84260000  1.0 0.1656353644
C  C58  1  0.65190000  0.96290000  0.65740000  1.0 0.1656353644
C  C59  1  0.93050000  0.31650000  0.13580000  1.0 -0.1984177359
C  C60  1  0.31650000  0.93050000  0.36420000  1.0 -0.1984177359
C  C61  1  0.06950000  0.68350000  0.86420000  1.0 -0.1984177359
C  C62  1  0.68350000  0.06950000  0.63580000  1.0 -0.1984177359
C  C63  1  0.92350000  0.21870000  0.23580000  1.0 0.0929569326
C  C64  1  0.21870000  0.92350000  0.26420000  1.0 0.0929569326
C  C65  1  0.07650000  0.78130000  0.76420000  1.0 0.0929569326
C  C66  1  0.78130000  0.07650000  0.73580000  1.0 0.0929569326
C  C67  1  0.05010000  0.45310000  0.05190000  1.0 -0.2424601965
C  C68  1  0.45310000  0.05010000  0.44810000  1.0 -0.2424601965
C  C69  1  0.94990000  0.54690000  0.94810000  1.0 -0.2424601965
C  C70  1  0.54690000  0.94990000  0.55190000  1.0 -0.2424601965
N  N1  1  0.01709000  0.15029000  0.35670000  1.0 -0.2190434166
N  N2  1  0.15029000  0.01709000  0.14330000  1.0 -0.2190434166
N  N3  1  0.98291000  0.84971000  0.64330000  1.0 -0.2190434166
N  N4  1  0.84971000  0.98291000  0.85670000  1.0 -0.2190434166
O  O1  1  0.15955000  0.91217000  0.56660000  1.0 -0.5400999912
O  O2  1  0.91217000  0.15955000  0.93340000  1.0 -0.5400999912
O  O3  1  0.84045000  0.08783000  0.43340000  1.0 -0.5400999912
O  O4  1  0.08783000  0.84045000  0.06660000  1.0 -0.5400999912
O  O5  1  0.10960000  0.80300000  0.47200000  1.0 -0.5466936358
O  O6  1  0.80300000  0.10960000  0.02800000  1.0 -0.5466936358
O  O7  1  0.89040000  0.19700000  0.52800000  1.0 -0.5466936358
O  O8  1  0.19700000  0.89040000  0.97200000  1.0 -0.5466936358
O  O9  1  0.25770000  0.63130000  0.55790000  1.0 -0.4211940893
O  O10  1  0.63130000  0.25770000  0.94210000  1.0 -0.4211940893
O  O11  1  0.74230000  0.36870000  0.44210000  1.0 -0.4211940893
O  O12  1  0.36870000  0.74230000  0.05790000  1.0 -0.4211940893
