# DDEC6 charges by PACMAN v1.1 (https://github.com/mtap-research/PACMAN-charge/)
data_YARBIE_ASR_pacman
_symmetry_space_group_name_H-M   'P 1'
_cell_length_a   12.49640000
_cell_length_b   13.07100000
_cell_length_c   20.84500000
_cell_angle_alpha   90.00000000
_cell_angle_beta   90.00000000
_cell_angle_gamma   90.00000000
_symmetry_Int_Tables_number   1
_chemical_formula_structural   ZnH30C37(NO3)2
_chemical_formula_sum   'Zn4 H120 C148 N8 O24'
_cell_volume   3404.83156352
_cell_formula_units_Z   4
loop_
 _symmetry_equiv_pos_site_id
 _symmetry_equiv_pos_as_xyz
  1  'x, y, z'
loop_
 _atom_site_type_symbol
 _atom_site_label
 _atom_site_symmetry_multiplicity
 _atom_site_fract_x
 _atom_site_fract_y
 _atom_site_fract_z
 _atom_site_occupancy
 _atom_site_charge
Zn  Zn1  1  0.56326000  0.01253000  0.97899000  1.0 0.7451574342
Zn  Zn2  1  0.06326000  0.51253000  0.52101000  1.0 0.7451574342
Zn  Zn3  1  0.06326000  0.98747000  0.02101000  1.0 0.7451574342
Zn  Zn4  1  0.56326000  0.48747000  0.47899000  1.0 0.7451574342
H  H1  1  0.79140000  0.14000000  0.07090000  1.0 0.3412215995
H  H2  1  0.29140000  0.64000000  0.42910000  1.0 0.3412215995
H  H3  1  0.03380000  0.45380000  0.30760000  1.0 0.3300875785
H  H4  1  0.53380000  0.95380000  0.19240000  1.0 0.3300875785
H  H5  1  0.51820000  0.34770000  0.06720000  1.0 0.1312321135
H  H6  1  0.01820000  0.84770000  0.43280000  1.0 0.1312321135
H  H7  1  0.79070000  0.48000000  0.24030000  1.0 0.12025428
H  H8  1  0.29070000  0.98000000  0.25970000  1.0 0.12025428
H  H9  1  0.67030000  0.60940000  0.26130000  1.0 0.1118694937
H  H10  1  0.17030000  0.10940000  0.23870000  1.0 0.1118694937
H  H11  1  0.51080000  0.62020000  0.20470000  1.0 0.12025428
H  H12  1  0.01080000  0.12020000  0.29530000  1.0 0.12025428
H  H13  1  0.47420000  0.50800000  0.12470000  1.0 0.12025428
H  H14  1  0.97420000  0.00800000  0.37530000  1.0 0.12025428
H  H15  1  0.91450000  0.25050000  0.17570000  1.0 0.12025428
H  H16  1  0.41450000  0.75050000  0.32430000  1.0 0.12025428
H  H17  1  0.92540000  0.36890000  0.18400000  1.0 0.12025428
H  H18  1  0.42540000  0.86890000  0.31600000  1.0 0.12025428
H  H19  1  0.83860000  0.28150000  0.44390000  1.0 0.1312321135
H  H20  1  0.33860000  0.78150000  0.05610000  1.0 0.1312321135
H  H21  1  0.75510000  0.15010000  0.21130000  1.0 0.12025428
H  H22  1  0.25510000  0.65010000  0.28870000  1.0 0.12025428
H  H23  1  0.65050000  0.02900000  0.25790000  1.0 0.1118694937
H  H24  1  0.15050000  0.52900000  0.24210000  1.0 0.1118694937
H  H25  1  0.61660000  0.03050000  0.36900000  1.0 0.12025428
H  H26  1  0.11660000  0.53050000  0.13100000  1.0 0.12025428
H  H27  1  0.70790000  0.14620000  0.43240000  1.0 0.12025428
H  H28  1  0.20790000  0.64620000  0.06760000  1.0 0.12025428
H  H29  1  0.34300000  0.02640000  0.92090000  1.0 0.12025428
H  H30  1  0.84300000  0.52640000  0.57910000  1.0 0.12025428
H  H31  1  0.25820000  0.10780000  0.83820000  1.0 0.1408843298
H  H32  1  0.75820000  0.60780000  0.66180000  1.0 0.1408843298
H  H33  1  0.53880000  0.19630000  0.77220000  1.0 0.1312321135
H  H34  1  0.03880000  0.69630000  0.72780000  1.0 0.1312321135
H  H35  1  0.62120000  0.10830000  0.85550000  1.0 0.1118694937
H  H36  1  0.12120000  0.60830000  0.64450000  1.0 0.1118694937
H  H37  1  0.35000000  0.29320000  0.75190000  1.0 0.0996905217
H  H38  1  0.85000000  0.79320000  0.74810000  1.0 0.0996905217
H  H39  1  0.25060000  0.22250000  0.76300000  1.0 0.0894247067
H  H40  1  0.75060000  0.72250000  0.73700000  1.0 0.0894247067
H  H41  1  0.40400000  0.18740000  0.66650000  1.0 0.0894247067
H  H42  1  0.90400000  0.68740000  0.83350000  1.0 0.0894247067
H  H43  1  0.30100000  0.12040000  0.67670000  1.0 0.080199421
H  H44  1  0.80100000  0.62040000  0.82330000  1.0 0.080199421
H  H45  1  0.29430000  0.47400000  0.56040000  1.0 0.1118694937
H  H46  1  0.79430000  0.97400000  0.93960000  1.0 0.1118694937
H  H47  1  0.38980000  0.35710000  0.62220000  1.0 0.1408843298
H  H48  1  0.88980000  0.85710000  0.87780000  1.0 0.1408843298
H  H49  1  0.12570000  0.18850000  0.63650000  1.0 0.1312321135
H  H50  1  0.62570000  0.68850000  0.86350000  1.0 0.1312321135
H  H51  1  0.03880000  0.30480000  0.57250000  1.0 0.1118694937
H  H52  1  0.53880000  0.80480000  0.92750000  1.0 0.1118694937
H  H53  1  0.42800000  0.16270000  0.69780000  1.0 0.0894247067
H  H54  1  0.92800000  0.66270000  0.80220000  1.0 0.0894247067
H  H55  1  0.40200000  0.27140000  0.72520000  1.0 0.0894247067
H  H56  1  0.90200000  0.77140000  0.77480000  1.0 0.0894247067
H  H57  1  0.21510000  0.21680000  0.72920000  1.0 0.0996905217
H  H58  1  0.71510000  0.71680000  0.77080000  1.0 0.0996905217
H  H59  1  0.25050000  0.12330000  0.68640000  1.0 0.080199421
H  H60  1  0.75050000  0.62330000  0.81360000  1.0 0.080199421
H  H61  1  0.29140000  0.86000000  0.92910000  1.0 0.3412215995
H  H62  1  0.79140000  0.36000000  0.57090000  1.0 0.3412215995
H  H63  1  0.53380000  0.54620000  0.69240000  1.0 0.3300875785
H  H64  1  0.03380000  0.04620000  0.80760000  1.0 0.3300875785
H  H65  1  0.01820000  0.65230000  0.93280000  1.0 0.1312321135
H  H66  1  0.51820000  0.15230000  0.56720000  1.0 0.1312321135
H  H67  1  0.29070000  0.52000000  0.75970000  1.0 0.12025428
H  H68  1  0.79070000  0.02000000  0.74030000  1.0 0.12025428
H  H69  1  0.17030000  0.39060000  0.73870000  1.0 0.1118694937
H  H70  1  0.67030000  0.89060000  0.76130000  1.0 0.1118694937
H  H71  1  0.01080000  0.37980000  0.79530000  1.0 0.12025428
H  H72  1  0.51080000  0.87980000  0.70470000  1.0 0.12025428
H  H73  1  0.97420000  0.49200000  0.87530000  1.0 0.12025428
H  H74  1  0.47420000  0.99200000  0.62470000  1.0 0.12025428
H  H75  1  0.41450000  0.74950000  0.82430000  1.0 0.12025428
H  H76  1  0.91450000  0.24950000  0.67570000  1.0 0.12025428
H  H77  1  0.42540000  0.63110000  0.81600000  1.0 0.12025428
H  H78  1  0.92540000  0.13110000  0.68400000  1.0 0.12025428
H  H79  1  0.33860000  0.71850000  0.55610000  1.0 0.1312321135
H  H80  1  0.83860000  0.21850000  0.94390000  1.0 0.1312321135
H  H81  1  0.25510000  0.84990000  0.78870000  1.0 0.12025428
H  H82  1  0.75510000  0.34990000  0.71130000  1.0 0.12025428
H  H83  1  0.15050000  0.97100000  0.74210000  1.0 0.1118694937
H  H84  1  0.65050000  0.47100000  0.75790000  1.0 0.1118694937
H  H85  1  0.11660000  0.96950000  0.63100000  1.0 0.12025428
H  H86  1  0.61660000  0.46950000  0.86900000  1.0 0.12025428
H  H87  1  0.20790000  0.85380000  0.56760000  1.0 0.12025428
H  H88  1  0.70790000  0.35380000  0.93240000  1.0 0.12025428
H  H89  1  0.84300000  0.97360000  0.07910000  1.0 0.12025428
H  H90  1  0.34300000  0.47360000  0.42090000  1.0 0.12025428
H  H91  1  0.75820000  0.89220000  0.16180000  1.0 0.1408843298
H  H92  1  0.25820000  0.39220000  0.33820000  1.0 0.1408843298
H  H93  1  0.03880000  0.80370000  0.22780000  1.0 0.1312321135
H  H94  1  0.53880000  0.30370000  0.27220000  1.0 0.1312321135
H  H95  1  0.12120000  0.89170000  0.14450000  1.0 0.1118694937
H  H96  1  0.62120000  0.39170000  0.35550000  1.0 0.1118694937
H  H97  1  0.85000000  0.70680000  0.24810000  1.0 0.0996905217
H  H98  1  0.35000000  0.20680000  0.25190000  1.0 0.0996905217
H  H99  1  0.75060000  0.77750000  0.23700000  1.0 0.0894247067
H  H100  1  0.25060000  0.27750000  0.26300000  1.0 0.0894247067
H  H101  1  0.90400000  0.81260000  0.33350000  1.0 0.0894247067
H  H102  1  0.40400000  0.31260000  0.16650000  1.0 0.0894247067
H  H103  1  0.80100000  0.87960000  0.32330000  1.0 0.080199421
H  H104  1  0.30100000  0.37960000  0.17670000  1.0 0.080199421
H  H105  1  0.79430000  0.52600000  0.43960000  1.0 0.1118694937
H  H106  1  0.29430000  0.02600000  0.06040000  1.0 0.1118694937
H  H107  1  0.88980000  0.64290000  0.37780000  1.0 0.1408843298
H  H108  1  0.38980000  0.14290000  0.12220000  1.0 0.1408843298
H  H109  1  0.62570000  0.81150000  0.36350000  1.0 0.1312321135
H  H110  1  0.12570000  0.31150000  0.13650000  1.0 0.1312321135
H  H111  1  0.53880000  0.69520000  0.42750000  1.0 0.1118694937
H  H112  1  0.03880000  0.19520000  0.07250000  1.0 0.1118694937
H  H113  1  0.92800000  0.83730000  0.30220000  1.0 0.0894247067
H  H114  1  0.42800000  0.33730000  0.19780000  1.0 0.0894247067
H  H115  1  0.90200000  0.72860000  0.27480000  1.0 0.0894247067
H  H116  1  0.40200000  0.22860000  0.22520000  1.0 0.0894247067
H  H117  1  0.71510000  0.78320000  0.27080000  1.0 0.0996905217
H  H118  1  0.21510000  0.28320000  0.22920000  1.0 0.0996905217
H  H119  1  0.75050000  0.87670000  0.31360000  1.0 0.080199421
H  H120  1  0.25050000  0.37670000  0.18640000  1.0 0.080199421
C  C1  1  0.61340000  0.17990000  0.03240000  1.0 0.5693419711
C  C2  1  0.11340000  0.67990000  0.46760000  1.0 0.5693419711
C  C3  1  0.77630000  0.32600000  0.15610000  1.0 -0.0232016362
C  C4  1  0.27630000  0.82600000  0.34390000  1.0 -0.0232016362
C  C5  1  0.74970000  0.25970000  0.10740000  1.0 0.1945156293
C  C6  1  0.24970000  0.75970000  0.39260000  1.0 0.1945156293
C  C7  1  0.64860000  0.26360000  0.07560000  1.0 -0.1407927959
C  C8  1  0.14860000  0.76360000  0.42440000  1.0 -0.1407927959
C  C9  1  0.58290000  0.34300000  0.08900000  1.0 -0.1609922475
C  C10  1  0.08290000  0.84300000  0.41100000  1.0 -0.1609922475
C  C11  1  0.60750000  0.41770000  0.13390000  1.0 0.0509099076
C  C12  1  0.10750000  0.91770000  0.36610000  1.0 0.0509099076
C  C13  1  0.70530000  0.40930000  0.16950000  1.0 0.0509099076
C  C14  1  0.20530000  0.90930000  0.33050000  1.0 0.0509099076
C  C15  1  0.72720000  0.48350000  0.21720000  1.0 -0.1512561622
C  C16  1  0.22720000  0.98350000  0.28280000  1.0 -0.1512561622
C  C17  1  0.65500000  0.56140000  0.22970000  1.0 -0.1407927959
C  C18  1  0.15500000  0.06140000  0.27030000  1.0 -0.1407927959
C  C19  1  0.55930000  0.56850000  0.19520000  1.0 -0.1215753084
C  C20  1  0.05930000  0.06850000  0.30480000  1.0 -0.1215753084
C  C21  1  0.53700000  0.50060000  0.14830000  1.0 -0.1407927959
C  C22  1  0.03700000  0.00060000  0.35170000  1.0 -0.1407927959
C  C23  1  0.87920000  0.31080000  0.19270000  1.0 -0.2623865469
C  C24  1  0.37920000  0.81080000  0.30730000  1.0 -0.2623865469
C  C25  1  0.98500000  0.42020000  0.41560000  1.0 0.5693419711
C  C26  1  0.48500000  0.92020000  0.08440000  1.0 0.5693419711
C  C27  1  0.86980000  0.29880000  0.26490000  1.0 -0.0232016362
C  C28  1  0.36980000  0.79880000  0.23510000  1.0 -0.0232016362
C  C29  1  0.92960000  0.35760000  0.30550000  1.0 0.180224883
C  C30  1  0.42960000  0.85760000  0.19450000  1.0 0.180224883
C  C31  1  0.91880000  0.35340000  0.37370000  1.0 -0.1512561622
C  C32  1  0.41880000  0.85340000  0.12630000  1.0 -0.1512561622
C  C33  1  0.84800000  0.28430000  0.39970000  1.0 -0.1512561622
C  C34  1  0.34800000  0.78430000  0.10030000  1.0 -0.1512561622
C  C35  1  0.79060000  0.21880000  0.36030000  1.0 0.0615190329
C  C36  1  0.29060000  0.71880000  0.13970000  1.0 0.0615190329
C  C37  1  0.80250000  0.22230000  0.29250000  1.0 0.0393910618
C  C38  1  0.30250000  0.72230000  0.20750000  1.0 0.0393910618
C  C39  1  0.74750000  0.14960000  0.25570000  1.0 -0.1609922475
C  C40  1  0.24750000  0.64960000  0.24430000  1.0 -0.1609922475
C  C41  1  0.68300000  0.07830000  0.28360000  1.0 -0.1512561622
C  C42  1  0.18300000  0.57830000  0.21640000  1.0 -0.1512561622
C  C43  1  0.66420000  0.07690000  0.35080000  1.0 -0.1215753084
C  C44  1  0.16420000  0.57690000  0.14920000  1.0 -0.1215753084
C  C45  1  0.71840000  0.14630000  0.38820000  1.0 -0.1407927959
C  C46  1  0.21840000  0.64630000  0.11180000  1.0 -0.1407927959
C  C47  1  0.38400000  0.06030000  0.89030000  1.0 0.080199421
C  C48  1  0.88400000  0.56030000  0.60970000  1.0 0.080199421
C  C49  1  0.33250000  0.10890000  0.84040000  1.0 -0.223935855
C  C50  1  0.83250000  0.60890000  0.65960000  1.0 -0.223935855
C  C51  1  0.38920000  0.15820000  0.79440000  1.0 0.1408843298
C  C52  1  0.88920000  0.65820000  0.70560000  1.0 0.1408843298
C  C53  1  0.49720000  0.16020000  0.80150000  1.0 -0.2758087082
C  C54  1  0.99720000  0.66020000  0.69850000  1.0 -0.2758087082
C  C55  1  0.54690000  0.10830000  0.85270000  1.0 0.0894247067
C  C56  1  0.04690000  0.60830000  0.64730000  1.0 0.0894247067
C  C57  1  0.32500000  0.22320000  0.74920000  1.0 -0.0968046481
C  C58  1  0.82500000  0.72320000  0.75080000  1.0 -0.0968046481
C  C59  1  0.33000000  0.18890000  0.68060000  1.0 -0.0862597092
C  C60  1  0.83000000  0.68890000  0.81940000  1.0 -0.0862597092
C  C61  1  0.25980000  0.41600000  0.57600000  1.0 0.0894247067
C  C62  1  0.75980000  0.91600000  0.92400000  1.0 0.0894247067
C  C63  1  0.31750000  0.34610000  0.61410000  1.0 -0.2516050874
C  C64  1  0.81750000  0.84610000  0.88590000  1.0 -0.2516050874
C  C65  1  0.26710000  0.26150000  0.63950000  1.0 0.1312321135
C  C66  1  0.76710000  0.76150000  0.86050000  1.0 0.1312321135
C  C67  1  0.16190000  0.24630000  0.62220000  1.0 -0.268439935
C  C68  1  0.66190000  0.74630000  0.87780000  1.0 -0.268439935
C  C69  1  0.10970000  0.31670000  0.58370000  1.0 0.0894247067
C  C70  1  0.60970000  0.81670000  0.91630000  1.0 0.0894247067
C  C71  1  0.38000000  0.20000000  0.72500000  1.0 -0.0797649523
C  C72  1  0.88000000  0.70000000  0.77500000  1.0 -0.0797649523
C  C73  1  0.26700000  0.19300000  0.69800000  1.0 -0.1087612374
C  C74  1  0.76700000  0.69300000  0.80200000  1.0 -0.1087612374
C  C75  1  0.11340000  0.82010000  0.96760000  1.0 0.5693419711
C  C76  1  0.61340000  0.32010000  0.53240000  1.0 0.5693419711
C  C77  1  0.27630000  0.67400000  0.84390000  1.0 -0.0232016362
C  C78  1  0.77630000  0.17400000  0.65610000  1.0 -0.0232016362
C  C79  1  0.24970000  0.74030000  0.89260000  1.0 0.1945156293
C  C80  1  0.74970000  0.24030000  0.60740000  1.0 0.1945156293
C  C81  1  0.14860000  0.73640000  0.92440000  1.0 -0.1407927959
C  C82  1  0.64860000  0.23640000  0.57560000  1.0 -0.1407927959
C  C83  1  0.08290000  0.65700000  0.91100000  1.0 -0.1609922475
C  C84  1  0.58290000  0.15700000  0.58900000  1.0 -0.1609922475
C  C85  1  0.10750000  0.58230000  0.86610000  1.0 0.0509099076
C  C86  1  0.60750000  0.08230000  0.63390000  1.0 0.0509099076
C  C87  1  0.20530000  0.59070000  0.83050000  1.0 0.0509099076
C  C88  1  0.70530000  0.09070000  0.66950000  1.0 0.0509099076
C  C89  1  0.22720000  0.51650000  0.78280000  1.0 -0.1512561622
C  C90  1  0.72720000  0.01650000  0.71720000  1.0 -0.1512561622
C  C91  1  0.15500000  0.43860000  0.77030000  1.0 -0.1407927959
C  C92  1  0.65500000  0.93860000  0.72970000  1.0 -0.1407927959
C  C93  1  0.05930000  0.43150000  0.80480000  1.0 -0.1215753084
C  C94  1  0.55930000  0.93150000  0.69520000  1.0 -0.1215753084
C  C95  1  0.03700000  0.49940000  0.85170000  1.0 -0.1407927959
C  C96  1  0.53700000  0.99940000  0.64830000  1.0 -0.1407927959
C  C97  1  0.37920000  0.68920000  0.80730000  1.0 -0.2623865469
C  C98  1  0.87920000  0.18920000  0.69270000  1.0 -0.2623865469
C  C99  1  0.48500000  0.57980000  0.58440000  1.0 0.5693419711
C  C100  1  0.98500000  0.07980000  0.91560000  1.0 0.5693419711
C  C101  1  0.36980000  0.70120000  0.73510000  1.0 -0.0232016362
C  C102  1  0.86980000  0.20120000  0.76490000  1.0 -0.0232016362
C  C103  1  0.42960000  0.64240000  0.69450000  1.0 0.180224883
C  C104  1  0.92960000  0.14240000  0.80550000  1.0 0.180224883
C  C105  1  0.41880000  0.64660000  0.62630000  1.0 -0.1512561622
C  C106  1  0.91880000  0.14660000  0.87370000  1.0 -0.1512561622
C  C107  1  0.34800000  0.71570000  0.60030000  1.0 -0.1512561622
C  C108  1  0.84800000  0.21570000  0.89970000  1.0 -0.1512561622
C  C109  1  0.29060000  0.78120000  0.63970000  1.0 0.0615190329
C  C110  1  0.79060000  0.28120000  0.86030000  1.0 0.0615190329
C  C111  1  0.30250000  0.77770000  0.70750000  1.0 0.0393910618
C  C112  1  0.80250000  0.27770000  0.79250000  1.0 0.0393910618
C  C113  1  0.24750000  0.85040000  0.74430000  1.0 -0.1609922475
C  C114  1  0.74750000  0.35040000  0.75570000  1.0 -0.1609922475
C  C115  1  0.18300000  0.92170000  0.71640000  1.0 -0.1512561622
C  C116  1  0.68300000  0.42170000  0.78360000  1.0 -0.1512561622
C  C117  1  0.16420000  0.92310000  0.64920000  1.0 -0.1215753084
C  C118  1  0.66420000  0.42310000  0.85080000  1.0 -0.1215753084
C  C119  1  0.21840000  0.85370000  0.61180000  1.0 -0.1407927959
C  C120  1  0.71840000  0.35370000  0.88820000  1.0 -0.1407927959
C  C121  1  0.88400000  0.93970000  0.10970000  1.0 0.080199421
C  C122  1  0.38400000  0.43970000  0.39030000  1.0 0.080199421
C  C123  1  0.83250000  0.89110000  0.15960000  1.0 -0.223935855
C  C124  1  0.33250000  0.39110000  0.34040000  1.0 -0.223935855
C  C125  1  0.88920000  0.84180000  0.20560000  1.0 0.1408843298
C  C126  1  0.38920000  0.34180000  0.29440000  1.0 0.1408843298
C  C127  1  0.99720000  0.83980000  0.19850000  1.0 -0.2758087082
C  C128  1  0.49720000  0.33980000  0.30150000  1.0 -0.2758087082
C  C129  1  0.04690000  0.89170000  0.14730000  1.0 0.0894247067
C  C130  1  0.54690000  0.39170000  0.35270000  1.0 0.0894247067
C  C131  1  0.82500000  0.77680000  0.25080000  1.0 -0.0968046481
C  C132  1  0.32500000  0.27680000  0.24920000  1.0 -0.0968046481
C  C133  1  0.83000000  0.81110000  0.31940000  1.0 -0.0862597092
C  C134  1  0.33000000  0.31110000  0.18060000  1.0 -0.0862597092
C  C135  1  0.75980000  0.58400000  0.42400000  1.0 0.0894247067
C  C136  1  0.25980000  0.08400000  0.07600000  1.0 0.0894247067
C  C137  1  0.81750000  0.65390000  0.38590000  1.0 -0.2516050874
C  C138  1  0.31750000  0.15390000  0.11410000  1.0 -0.2516050874
C  C139  1  0.76710000  0.73850000  0.36050000  1.0 0.1312321135
C  C140  1  0.26710000  0.23850000  0.13950000  1.0 0.1312321135
C  C141  1  0.66190000  0.75370000  0.37780000  1.0 -0.268439935
C  C142  1  0.16190000  0.25370000  0.12220000  1.0 -0.268439935
C  C143  1  0.60970000  0.68330000  0.41630000  1.0 0.0894247067
C  C144  1  0.10970000  0.18330000  0.08370000  1.0 0.0894247067
C  C145  1  0.88000000  0.80000000  0.27500000  1.0 -0.0797649523
C  C146  1  0.38000000  0.30000000  0.22500000  1.0 -0.0797649523
C  C147  1  0.76700000  0.80700000  0.30200000  1.0 -0.1087612374
C  C148  1  0.26700000  0.30700000  0.19800000  1.0 -0.1087612374
N  N1  1  0.49070000  0.05980000  0.89650000  1.0 -0.2254931791
N  N2  1  0.99070000  0.55980000  0.60350000  1.0 -0.2254931791
N  N3  1  0.15780000  0.40110000  0.56200000  1.0 -0.2379393889
N  N4  1  0.65780000  0.90110000  0.93800000  1.0 -0.2379393889
N  N5  1  0.99070000  0.94020000  0.10350000  1.0 -0.2254931791
N  N6  1  0.49070000  0.44020000  0.39650000  1.0 -0.2254931791
N  N7  1  0.65780000  0.59890000  0.43800000  1.0 -0.2379393889
N  N8  1  0.15780000  0.09890000  0.06200000  1.0 -0.2379393889
O  O1  1  0.51580000  0.17230000  0.01830000  1.0 -0.5147100551
O  O2  1  0.01580000  0.67230000  0.48170000  1.0 -0.5153076513
O  O3  1  0.67960000  0.11180000  0.01370000  1.0 -0.5388931695
O  O4  1  0.17960000  0.61180000  0.48630000  1.0 -0.5388931695
O  O5  1  0.82100000  0.18360000  0.09290000  1.0 -0.4141709669
O  O6  1  0.32100000  0.68360000  0.40710000  1.0 -0.4151989682
O  O7  1  0.96110000  0.42470000  0.47560000  1.0 -0.5388931695
O  O8  1  0.46110000  0.92470000  0.02440000  1.0 -0.5388931695
O  O9  1  0.06010000  0.47030000  0.39220000  1.0 -0.534726487
O  O10  1  0.56010000  0.97030000  0.10780000  1.0 -0.5388931695
O  O11  1  0.99750000  0.42770000  0.27920000  1.0 -0.4788409932
O  O12  1  0.49750000  0.92770000  0.22080000  1.0 -0.4788409932
O  O13  1  0.01580000  0.82770000  0.98170000  1.0 -0.5153076513
O  O14  1  0.51580000  0.32770000  0.51830000  1.0 -0.5147100551
O  O15  1  0.17960000  0.88820000  0.98630000  1.0 -0.5388931695
O  O16  1  0.67960000  0.38820000  0.51370000  1.0 -0.5388931695
O  O17  1  0.32100000  0.81640000  0.90710000  1.0 -0.4151989682
O  O18  1  0.82100000  0.31640000  0.59290000  1.0 -0.4141709669
O  O19  1  0.46110000  0.57530000  0.52440000  1.0 -0.5388931695
O  O20  1  0.96110000  0.07530000  0.97560000  1.0 -0.5388931695
O  O21  1  0.56010000  0.52970000  0.60780000  1.0 -0.534726487
O  O22  1  0.06010000  0.02970000  0.89220000  1.0 -0.534726487
O  O23  1  0.49750000  0.57230000  0.72080000  1.0 -0.4788409932
O  O24  1  0.99750000  0.07230000  0.77920000  1.0 -0.4788409932
