# DDEC6 charges by PACMAN v1.1 (https://github.com/mtap-research/PACMAN-charge/)
data_YARMEM_ASR_pacman
_symmetry_space_group_name_H-M   'P 1'
_cell_length_a   17.89320000
_cell_length_b   12.96240000
_cell_length_c   20.09840000
_cell_angle_alpha   90.00000000
_cell_angle_beta   111.56300000
_cell_angle_gamma   90.00000000
_symmetry_Int_Tables_number   1
_chemical_formula_structural   U2H28C28N13O12
_chemical_formula_sum   'U8 H112 C112 N52 O48'
_cell_volume   4335.35249570
_cell_formula_units_Z   4
loop_
 _symmetry_equiv_pos_site_id
 _symmetry_equiv_pos_as_xyz
  1  'x, y, z'
loop_
 _atom_site_type_symbol
 _atom_site_label
 _atom_site_symmetry_multiplicity
 _atom_site_fract_x
 _atom_site_fract_y
 _atom_site_fract_z
 _atom_site_occupancy
 _atom_site_charge
U  U1  1  0.46520000  0.73934000  0.98664000  1.0 2.1277879693
U  U2  1  0.45385000  0.03136000  0.90268000  1.0 2.1537102677
U  U3  1  0.53480000  0.26066000  0.01336000  1.0 2.1405830202
U  U4  1  0.54615000  0.96864000  0.09732000  1.0 2.1405830202
U  U5  1  0.53480000  0.23934000  0.51336000  1.0 2.1277879693
U  U6  1  0.54615000  0.53136000  0.59732000  1.0 2.1627406098
U  U7  1  0.46520000  0.76066000  0.48664000  1.0 2.1226884343
U  U8  1  0.45385000  0.46864000  0.40268000  1.0 2.1405830202
H  H1  1  0.86410000  0.60940000  0.67850000  1.0 0.0994748189
H  H2  1  0.77290000  0.58360000  0.63870000  1.0 0.0825006257
H  H3  1  0.16600000  0.86850000  0.51640000  1.0 0.0994748189
H  H4  1  0.15120000  0.89220000  0.43610000  1.0 0.0825006257
H  H5  1  0.84810000  0.92970000  0.49450000  1.0 0.0825006257
H  H6  1  0.92150000  0.90270000  0.56420000  1.0 0.0994748189
H  H7  1  0.73280000  0.80580000  0.46530000  1.0 0.0724811007
H  H8  1  0.70430000  0.66790000  0.52170000  1.0 0.0623362718
H  H9  1  0.31620000  0.55560000  0.58150000  1.0 0.0994748189
H  H10  1  0.33270000  0.51770000  0.51420000  1.0 0.0724811007
H  H11  1  0.88430000  0.94210000  0.38060000  1.0 0.0893038039
H  H12  1  0.99810000  0.92920000  0.35750000  1.0 0.0994748189
H  H13  1  0.19470000  0.75400000  0.37300000  1.0 0.0623362718
H  H14  1  0.26020000  0.60210000  0.40200000  1.0 0.0724811007
H  H15  1  0.99410000  0.71490000  0.25420000  1.0 0.1104133839
H  H16  1  0.05160000  0.80770000  0.28790000  1.0 0.0893038039
H  H17  1  0.75490000  0.83620000  0.34960000  1.0 0.0893038039
H  H18  1  0.75430000  0.73660000  0.30540000  1.0 0.1104133839
H  H19  1  0.13590000  0.39060000  0.32150000  1.0 0.0994748189
H  H20  1  0.22710000  0.41640000  0.36130000  1.0 0.0825006257
H  H21  1  0.83400000  0.13150000  0.48360000  1.0 0.0994748189
H  H22  1  0.84880000  0.10780000  0.56390000  1.0 0.0825006257
H  H23  1  0.15190000  0.07030000  0.50550000  1.0 0.0825006257
H  H24  1  0.07850000  0.09730000  0.43580000  1.0 0.0994748189
H  H25  1  0.26720000  0.19420000  0.53470000  1.0 0.0724811007
H  H26  1  0.29570000  0.33210000  0.47830000  1.0 0.0623362718
H  H27  1  0.68380000  0.44440000  0.41850000  1.0 0.0994748189
H  H28  1  0.66730000  0.48230000  0.48580000  1.0 0.0724811007
H  H29  1  0.11570000  0.05790000  0.61940000  1.0 0.0893038039
H  H30  1  0.00190000  0.07080000  0.64250000  1.0 0.0994748189
H  H31  1  0.80530000  0.24600000  0.62700000  1.0 0.0623362718
H  H32  1  0.73980000  0.39790000  0.59800000  1.0 0.0724811007
H  H33  1  0.00590000  0.28510000  0.74580000  1.0 0.1104133839
H  H34  1  0.94840000  0.19230000  0.71210000  1.0 0.0893038039
H  H35  1  0.24510000  0.16380000  0.65040000  1.0 0.0893038039
H  H36  1  0.24570000  0.26340000  0.69460000  1.0 0.1104133839
H  H37  1  0.13590000  0.10940000  0.82150000  1.0 0.0994748189
H  H38  1  0.22710000  0.08360000  0.86130000  1.0 0.0825006257
H  H39  1  0.83400000  0.36850000  0.98360000  1.0 0.0994748189
H  H40  1  0.84880000  0.39220000  0.06390000  1.0 0.0825006257
H  H41  1  0.15190000  0.42970000  0.00550000  1.0 0.0825006257
H  H42  1  0.07850000  0.40270000  0.93580000  1.0 0.0994748189
H  H43  1  0.26720000  0.30580000  0.03470000  1.0 0.0724811007
H  H44  1  0.29570000  0.16790000  0.97830000  1.0 0.0623362718
H  H45  1  0.68380000  0.05560000  0.91850000  1.0 0.0994748189
H  H46  1  0.66730000  0.01770000  0.98580000  1.0 0.0724811007
H  H47  1  0.11570000  0.44210000  0.11940000  1.0 0.0893038039
H  H48  1  0.00190000  0.42920000  0.14250000  1.0 0.0994748189
H  H49  1  0.80530000  0.25400000  0.12700000  1.0 0.0623362718
H  H50  1  0.73980000  0.10210000  0.09800000  1.0 0.0724811007
H  H51  1  0.00590000  0.21490000  0.24580000  1.0 0.1104133839
H  H52  1  0.94840000  0.30770000  0.21210000  1.0 0.0893038039
H  H53  1  0.24510000  0.33620000  0.15040000  1.0 0.0893038039
H  H54  1  0.24570000  0.23660000  0.19460000  1.0 0.1104133839
H  H55  1  0.86410000  0.89060000  0.17850000  1.0 0.0994748189
H  H56  1  0.77290000  0.91640000  0.13870000  1.0 0.0893038039
H  H57  1  0.16600000  0.63150000  0.01640000  1.0 0.0994748189
H  H58  1  0.15120000  0.60780000  0.93610000  1.0 0.0825006257
H  H59  1  0.84810000  0.57030000  0.99450000  1.0 0.0825006257
H  H60  1  0.92150000  0.59730000  0.06420000  1.0 0.0994748189
H  H61  1  0.73280000  0.69420000  0.96530000  1.0 0.0724811007
H  H62  1  0.70430000  0.83210000  0.02170000  1.0 0.0623362718
H  H63  1  0.31620000  0.94440000  0.08150000  1.0 0.0994748189
H  H64  1  0.33270000  0.98230000  0.01420000  1.0 0.0724811007
H  H65  1  0.88430000  0.55790000  0.88060000  1.0 0.0893038039
H  H66  1  0.99810000  0.57080000  0.85750000  1.0 0.0994748189
H  H67  1  0.19470000  0.74600000  0.87300000  1.0 0.0623362718
H  H68  1  0.26020000  0.89790000  0.90200000  1.0 0.0724811007
H  H69  1  0.99410000  0.78510000  0.75420000  1.0 0.1104133839
H  H70  1  0.05160000  0.69230000  0.78790000  1.0 0.0893038039
H  H71  1  0.75490000  0.66380000  0.84960000  1.0 0.0893038039
H  H72  1  0.75430000  0.76340000  0.80540000  1.0 0.1104133839
H  H73  1  0.21390000  0.87110000  0.73030000  1.0 0.1500351571
H  H74  1  0.33430000  0.61250000  0.81500000  1.0 0.1500351571
H  H75  1  0.06530000  0.64110000  0.56240000  1.0 0.0994748189
H  H76  1  0.12430000  0.54690000  0.57740000  1.0 0.0994748189
H  H77  1  0.09270000  0.50460000  0.67880000  1.0 0.1168384768
H  H78  1  0.03770000  0.60280000  0.66470000  1.0 0.1104133839
H  H79  1  0.10400000  0.77060000  0.66780000  1.0 0.1293729574
H  H80  1  0.22350000  0.51830000  0.74850000  1.0 0.1293729574
H  H81  1  0.95640000  0.52720000  0.54330000  1.0 0.0893038039
H  H82  1  0.01520000  0.43280000  0.55880000  1.0 0.0893038039
H  H83  1  0.78610000  0.12890000  0.26970000  1.0 0.1500351571
H  H84  1  0.66570000  0.38750000  0.18500000  1.0 0.1500351571
H  H85  1  0.93470000  0.35890000  0.43760000  1.0 0.0994748189
H  H86  1  0.87570000  0.45310000  0.42260000  1.0 0.0994748189
H  H87  1  0.90730000  0.49540000  0.32120000  1.0 0.1168384768
H  H88  1  0.96230000  0.39720000  0.33530000  1.0 0.1104133839
H  H89  1  0.89600000  0.22940000  0.33220000  1.0 0.1293729574
H  H90  1  0.77650000  0.48170000  0.25150000  1.0 0.1293729574
H  H91  1  0.04360000  0.47280000  0.45670000  1.0 0.0893038039
H  H92  1  0.98480000  0.56720000  0.44120000  1.0 0.0893038039
H  H93  1  0.78610000  0.37110000  0.76970000  1.0 0.1500351571
H  H94  1  0.66570000  0.11250000  0.68500000  1.0 0.1500351571
H  H95  1  0.93470000  0.14110000  0.93760000  1.0 0.0994748189
H  H96  1  0.87570000  0.04690000  0.92260000  1.0 0.0994748189
H  H97  1  0.90730000  0.00460000  0.82120000  1.0 0.1168384768
H  H98  1  0.96230000  0.10280000  0.83530000  1.0 0.1104133839
H  H99  1  0.89600000  0.27060000  0.83220000  1.0 0.1293729574
H  H100  1  0.77650000  0.01830000  0.75150000  1.0 0.1293729574
H  H101  1  0.04360000  0.02720000  0.95670000  1.0 0.0893038039
H  H102  1  0.98480000  0.93280000  0.94120000  1.0 0.0893038039
H  H103  1  0.21390000  0.62890000  0.23030000  1.0 0.1500351571
H  H104  1  0.33430000  0.88750000  0.31500000  1.0 0.1500351571
H  H105  1  0.06530000  0.85890000  0.06240000  1.0 0.0994748189
H  H106  1  0.12430000  0.95310000  0.07740000  1.0 0.0994748189
H  H107  1  0.09270000  0.99540000  0.17880000  1.0 0.1168384768
H  H108  1  0.03770000  0.89720000  0.16470000  1.0 0.1104133839
H  H109  1  0.10400000  0.72940000  0.16780000  1.0 0.1293729574
H  H110  1  0.22350000  0.98170000  0.24850000  1.0 0.1293729574
H  H111  1  0.95640000  0.97280000  0.04330000  1.0 0.0893038039
H  H112  1  0.01520000  0.06720000  0.05880000  1.0 0.0893038039
C  C1  1  0.82530000  0.58080000  0.63480000  1.0 0.0214579184
C  C2  1  0.20910000  0.68360000  0.51600000  1.0 0.5100794849
C  C3  1  0.13660000  0.84650000  0.46760000  1.0 0.0214579184
C  C4  1  0.02130000  0.86440000  0.50590000  1.0 0.5000152357
C  C5  1  0.88910000  0.87820000  0.51670000  1.0 0.0214579184
C  C6  1  0.77310000  0.75120000  0.47390000  1.0 0.0994748189
C  C7  1  0.75250000  0.65590000  0.51040000  1.0 0.1168384768
C  C8  1  0.29130000  0.52580000  0.53420000  1.0 0.0277300042
C  C9  1  0.87770000  0.72190000  0.58330000  1.0 0.5100794849
C  C10  1  0.91160000  0.87630000  0.39760000  1.0 0.0893038039
C  C11  1  0.98940000  0.86750000  0.38190000  1.0 0.0893038039
C  C12  1  0.16570000  0.70530000  0.39220000  1.0 0.0893038039
C  C13  1  0.21150000  0.60220000  0.41340000  1.0 0.0994748189
C  C14  1  0.08610000  0.57140000  0.32350000  1.0 0.5184554277
C  C15  1  0.02710000  0.74670000  0.29910000  1.0 0.0214579184
C  C16  1  0.90090000  0.73530000  0.32040000  1.0 0.5100794849
C  C17  1  0.78160000  0.77070000  0.35080000  1.0 0.0277300042
C  C18  1  0.74850000  0.60710000  0.39730000  1.0 0.5000152357
C  C19  1  0.17470000  0.41920000  0.36520000  1.0 0.0214579184
C  C20  1  0.79090000  0.31640000  0.48400000  1.0 0.5100794849
C  C21  1  0.86340000  0.15350000  0.53240000  1.0 0.0214579184
C  C22  1  0.97870000  0.13560000  0.49410000  1.0 0.5000152357
C  C23  1  0.11090000  0.12180000  0.48330000  1.0 0.0214579184
C  C24  1  0.22690000  0.24880000  0.52610000  1.0 0.0994748189
C  C25  1  0.24750000  0.34410000  0.48960000  1.0 0.1168384768
C  C26  1  0.70870000  0.47420000  0.46580000  1.0 0.0277300042
C  C27  1  0.12230000  0.27810000  0.41670000  1.0 0.5100794849
C  C28  1  0.08840000  0.12370000  0.60240000  1.0 0.0893038039
C  C29  1  0.01060000  0.13250000  0.61810000  1.0 0.0893038039
C  C30  1  0.83430000  0.29470000  0.60780000  1.0 0.0893038039
C  C31  1  0.78850000  0.39780000  0.58660000  1.0 0.0994748189
C  C32  1  0.91390000  0.42860000  0.67650000  1.0 0.5184554277
C  C33  1  0.97290000  0.25330000  0.70090000  1.0 0.0214579184
C  C34  1  0.09910000  0.26470000  0.67960000  1.0 0.5100794849
C  C35  1  0.21840000  0.22930000  0.64920000  1.0 0.0277300042
C  C36  1  0.25150000  0.39290000  0.60270000  1.0 0.5000152357
C  C37  1  0.17470000  0.08080000  0.86520000  1.0 0.0214579184
C  C38  1  0.79090000  0.18360000  0.98400000  1.0 0.5100794849
C  C39  1  0.86340000  0.34650000  0.03240000  1.0 0.0214579184
C  C40  1  0.97870000  0.36440000  0.99410000  1.0 0.5000152357
C  C41  1  0.11090000  0.37820000  0.98330000  1.0 0.0214579184
C  C42  1  0.22690000  0.25120000  0.02610000  1.0 0.0994748189
C  C43  1  0.24750000  0.15590000  0.98960000  1.0 0.1168384768
C  C44  1  0.70870000  0.02580000  0.96580000  1.0 0.0277300042
C  C45  1  0.12230000  0.22190000  0.91670000  1.0 0.5100794849
C  C46  1  0.08840000  0.37630000  0.10240000  1.0 0.0893038039
C  C47  1  0.01060000  0.36750000  0.11810000  1.0 0.0893038039
C  C48  1  0.83430000  0.20530000  0.10780000  1.0 0.0893038039
C  C49  1  0.78850000  0.10220000  0.08660000  1.0 0.0994748189
C  C50  1  0.91390000  0.07140000  0.17650000  1.0 0.5184554277
C  C51  1  0.97290000  0.24670000  0.20090000  1.0 0.0214579184
C  C52  1  0.09910000  0.23530000  0.17960000  1.0 0.5100794849
C  C53  1  0.21840000  0.27070000  0.14920000  1.0 0.0277300042
C  C54  1  0.25150000  0.10710000  0.10270000  1.0 0.5000152357
C  C55  1  0.82530000  0.91920000  0.13480000  1.0 0.0214579184
C  C56  1  0.20910000  0.81640000  0.01600000  1.0 0.5100794849
C  C57  1  0.13660000  0.65350000  0.96760000  1.0 0.0214579184
C  C58  1  0.02130000  0.63560000  0.00590000  1.0 0.5000152357
C  C59  1  0.88910000  0.62180000  0.01670000  1.0 0.0214579184
C  C60  1  0.77310000  0.74880000  0.97390000  1.0 0.0994748189
C  C61  1  0.75250000  0.84410000  0.01040000  1.0 0.1168384768
C  C62  1  0.29130000  0.97420000  0.03420000  1.0 0.0277300042
C  C63  1  0.87770000  0.77810000  0.08330000  1.0 0.5100794849
C  C64  1  0.91160000  0.62370000  0.89760000  1.0 0.0893038039
C  C65  1  0.98940000  0.63250000  0.88190000  1.0 0.0893038039
C  C66  1  0.16570000  0.79470000  0.89220000  1.0 0.0893038039
C  C67  1  0.21150000  0.89780000  0.91340000  1.0 0.0994748189
C  C68  1  0.08610000  0.92860000  0.82350000  1.0 0.5184554277
C  C69  1  0.02710000  0.75330000  0.79910000  1.0 0.0214579184
C  C70  1  0.90090000  0.76470000  0.82040000  1.0 0.5100794849
C  C71  1  0.78160000  0.72930000  0.85080000  1.0 0.0277300042
C  C72  1  0.74850000  0.89290000  0.89730000  1.0 0.5000152357
C  C73  1  0.51320000  0.50470000  0.04100000  1.0 0.5301229276
C  C74  1  0.28630000  0.75240000  0.77960000  1.0 0.0277300042
C  C75  1  0.21660000  0.79970000  0.73490000  1.0 -0.1592685681
C  C76  1  0.35770000  0.81610000  0.82390000  1.0 0.5928995826
C  C77  1  0.28830000  0.64580000  0.78490000  1.0 -0.1592685681
C  C78  1  0.07530000  0.57180000  0.58180000  1.0 -0.1789404683
C  C79  1  0.08580000  0.57440000  0.66020000  1.0 -0.126237829
C  C80  1  0.15150000  0.73960000  0.69730000  1.0 0.0405787204
C  C81  1  0.22220000  0.58990000  0.74550000  1.0 0.0499925923
C  C82  1  0.00540000  0.50200000  0.53900000  1.0 -0.1733783764
C  C83  1  0.48680000  0.49530000  0.95900000  1.0 0.5184554277
C  C84  1  0.71370000  0.24760000  0.22040000  1.0 0.0277300042
C  C85  1  0.78340000  0.20030000  0.26510000  1.0 -0.1592685681
C  C86  1  0.64230000  0.18390000  0.17610000  1.0 0.5928995826
C  C87  1  0.71170000  0.35420000  0.21510000  1.0 -0.1592685681
C  C88  1  0.92470000  0.42820000  0.41820000  1.0 -0.1789404683
C  C89  1  0.91420000  0.42560000  0.33980000  1.0 -0.126237829
C  C90  1  0.84850000  0.26040000  0.30270000  1.0 0.0405787204
C  C91  1  0.77780000  0.41010000  0.25450000  1.0 0.0499925923
C  C92  1  0.99460000  0.49800000  0.46100000  1.0 -0.1733783764
C  C93  1  0.48680000  0.00470000  0.45900000  1.0 0.5184554277
C  C94  1  0.71370000  0.25240000  0.72040000  1.0 0.0277300042
C  C95  1  0.78340000  0.29970000  0.76510000  1.0 -0.1592685681
C  C96  1  0.64230000  0.31610000  0.67610000  1.0 0.5928995826
C  C97  1  0.71170000  0.14580000  0.71510000  1.0 -0.1592685681
C  C98  1  0.92470000  0.07180000  0.91820000  1.0 -0.1789404683
C  C99  1  0.91420000  0.07440000  0.83980000  1.0 -0.126237829
C  C100  1  0.84850000  0.23960000  0.80270000  1.0 0.0405787204
C  C101  1  0.77780000  0.08990000  0.75450000  1.0 0.0499925923
C  C102  1  0.99460000  0.00200000  0.96100000  1.0 -0.1733783764
C  C103  1  0.51320000  0.99530000  0.54100000  1.0 0.5301229276
C  C104  1  0.28630000  0.74760000  0.27960000  1.0 0.0277300042
C  C105  1  0.21660000  0.70030000  0.23490000  1.0 -0.1592685681
C  C106  1  0.35770000  0.68390000  0.32390000  1.0 0.5928995826
C  C107  1  0.28830000  0.85420000  0.28490000  1.0 -0.1592685681
C  C108  1  0.07530000  0.92820000  0.08180000  1.0 -0.1789404683
C  C109  1  0.08580000  0.92560000  0.16020000  1.0 -0.126237829
C  C110  1  0.15150000  0.76040000  0.19730000  1.0 0.0405787204
C  C111  1  0.22220000  0.91010000  0.24550000  1.0 0.0499925923
C  C112  1  0.00540000  0.99800000  0.03900000  1.0 -0.1789404683
N  N1  1  0.97610000  0.77780000  0.33670000  1.0 -0.2508506218
N  N2  1  0.09000000  0.67540000  0.33820000  1.0 -0.2789694044
N  N3  1  0.15420000  0.52680000  0.37120000  1.0 -0.2789694044
N  N4  1  0.86400000  0.79010000  0.35890000  1.0 -0.259141503
N  N5  1  0.85040000  0.78350000  0.52330000  1.0 -0.2395048093
N  N6  1  0.82390000  0.64390000  0.57540000  1.0 -0.2395048093
N  N7  1  0.74020000  0.57470000  0.45930000  1.0 -0.2693686682
N  N8  1  0.77380000  0.70780000  0.40750000  1.0 -0.2508506218
N  N9  1  0.93970000  0.86850000  0.47510000  1.0 -0.2693686682
N  N10  1  0.05160000  0.85670000  0.45260000  1.0 -0.259141503
N  N11  1  0.16100000  0.74290000  0.45880000  1.0 -0.2693686682
N  N12  1  0.23090000  0.59650000  0.48970000  1.0 -0.2789694044
N  N13  1  0.02390000  0.22220000  0.66330000  1.0 -0.2508506218
N  N14  1  0.91000000  0.32460000  0.66180000  1.0 -0.2789694044
N  N15  1  0.84580000  0.47320000  0.62880000  1.0 -0.2693686682
N  N16  1  0.13600000  0.20990000  0.64110000  1.0 -0.259141503
N  N17  1  0.14960000  0.21650000  0.47670000  1.0 -0.2395048093
N  N18  1  0.17610000  0.35610000  0.42460000  1.0 -0.2395048093
N  N19  1  0.25980000  0.42530000  0.54070000  1.0 -0.2693686682
N  N20  1  0.22620000  0.29220000  0.59250000  1.0 -0.259141503
N  N21  1  0.06030000  0.13150000  0.52490000  1.0 -0.2693686682
N  N22  1  0.94840000  0.14330000  0.54740000  1.0 -0.259141503
N  N23  1  0.83900000  0.25710000  0.54120000  1.0 -0.2693686682
N  N24  1  0.76910000  0.40350000  0.51030000  1.0 -0.2789694044
N  N25  1  0.02390000  0.27780000  0.16330000  1.0 -0.2508506218
N  N26  1  0.91000000  0.17540000  0.16180000  1.0 -0.2789694044
N  N27  1  0.84580000  0.02680000  0.12880000  1.0 -0.2789694044
N  N28  1  0.13600000  0.29010000  0.14110000  1.0 -0.259141503
N  N29  1  0.14960000  0.28350000  0.97670000  1.0 -0.2395048093
N  N30  1  0.17610000  0.14390000  0.92460000  1.0 -0.2395048093
N  N31  1  0.25980000  0.07470000  0.04070000  1.0 -0.2693686682
N  N32  1  0.22620000  0.20780000  0.09250000  1.0 -0.2508506218
N  N33  1  0.06030000  0.36850000  0.02490000  1.0 -0.2693686682
N  N34  1  0.94840000  0.35670000  0.04740000  1.0 -0.259141503
N  N35  1  0.83900000  0.24290000  0.04120000  1.0 -0.2693686682
N  N36  1  0.76910000  0.09650000  0.01030000  1.0 -0.2789694044
N  N37  1  0.97610000  0.72220000  0.83670000  1.0 -0.2508506218
N  N38  1  0.09000000  0.82460000  0.83820000  1.0 -0.2789694044
N  N39  1  0.15420000  0.97320000  0.87120000  1.0 -0.2789694044
N  N40  1  0.86400000  0.70990000  0.85890000  1.0 -0.259141503
N  N41  1  0.85040000  0.71650000  0.02330000  1.0 -0.2395048093
N  N42  1  0.82390000  0.85610000  0.07540000  1.0 -0.2395048093
N  N43  1  0.74020000  0.92530000  0.95930000  1.0 -0.2693686682
N  N44  1  0.77380000  0.79220000  0.90750000  1.0 -0.2508506218
N  N45  1  0.93970000  0.63150000  0.97510000  1.0 -0.2693686682
N  N46  1  0.05160000  0.64330000  0.95260000  1.0 -0.259141503
N  N47  1  0.16100000  0.75710000  0.95880000  1.0 -0.2693686682
N  N48  1  0.23090000  0.90350000  0.98970000  1.0 -0.2789694044
N  N49  1  0.15600000  0.63740000  0.70280000  1.0 0.1104133839
N  N50  1  0.84400000  0.36260000  0.29720000  1.0 0.1104133839
N  N51  1  0.84400000  0.13740000  0.79720000  1.0 0.1104133839
N  N52  1  0.15600000  0.86260000  0.20280000  1.0 0.1104133839
O  O1  1  0.22770000  0.70710000  0.57878000  1.0 -0.5192581646
O  O2  1  0.06090000  0.86960000  0.56960000  1.0 -0.5397097848
O  O3  1  0.93930000  0.73630000  0.63470000  1.0 -0.5293274827
O  O4  1  0.73600000  0.55690000  0.34330000  1.0 -0.5293274827
O  O5  1  0.87200000  0.66560000  0.27970000  1.0 -0.5085716478
O  O6  1  0.03310000  0.52740000  0.27580000  1.0 -0.5397097848
O  O7  1  0.77230000  0.29290000  0.42122000  1.0 -0.5192581646
O  O8  1  0.93910000  0.13040000  0.43040000  1.0 -0.5397097848
O  O9  1  0.06070000  0.26370000  0.36530000  1.0 -0.5293274827
O  O10  1  0.26400000  0.44310000  0.65670000  1.0 -0.5293274827
O  O11  1  0.12800000  0.33440000  0.72030000  1.0 -0.5085716478
O  O12  1  0.96690000  0.47260000  0.72420000  1.0 -0.5397097848
O  O13  1  0.77230000  0.20710000  0.92122000  1.0 -0.5192581646
O  O14  1  0.93910000  0.36960000  0.93040000  1.0 -0.5397097848
O  O15  1  0.06070000  0.23630000  0.86530000  1.0 -0.5293274827
O  O16  1  0.26400000  0.05690000  0.15670000  1.0 -0.5293274827
O  O17  1  0.12800000  0.16560000  0.22030000  1.0 -0.5085716478
O  O18  1  0.96690000  0.02740000  0.22420000  1.0 -0.5397097848
O  O19  1  0.22770000  0.79290000  0.07878000  1.0 -0.5192581646
O  O20  1  0.06090000  0.63040000  0.06960000  1.0 -0.5397097848
O  O21  1  0.93930000  0.76370000  0.13470000  1.0 -0.5293274827
O  O22  1  0.73600000  0.94310000  0.84330000  1.0 -0.5293274827
O  O23  1  0.87200000  0.83440000  0.77970000  1.0 -0.5085716478
O  O24  1  0.03310000  0.97260000  0.77580000  1.0 -0.5397097848
O  O25  1  0.49930000  0.58690000  0.06530000  1.0 -0.576447048
O  O26  1  0.34930000  0.91110000  0.82310000  1.0 -0.6493476115
O  O27  1  0.42040000  0.76780000  0.86050000  1.0 -0.6493476115
O  O28  1  0.50400000  0.79770000  0.10456000  1.0 -1.2395975374
O  O29  1  0.54670000  0.42760000  0.07700000  1.0 -0.6319860749
O  O30  1  0.46390000  0.90880000  0.98437000  1.0 -1.283188381
O  O31  1  0.50070000  0.41310000  0.93470000  1.0 -0.5708745502
O  O32  1  0.65070000  0.08890000  0.17690000  1.0 -0.6493476115
O  O33  1  0.57960000  0.23220000  0.13950000  1.0 -0.6493476115
O  O34  1  0.49600000  0.20230000  0.89544000  1.0 -1.2395975374
O  O35  1  0.45330000  0.57240000  0.92300000  1.0 -0.6319860749
O  O36  1  0.53610000  0.09120000  0.01563000  1.0 -1.2858888887
O  O37  1  0.50070000  0.08690000  0.43470000  1.0 -0.5708745502
O  O38  1  0.65070000  0.41110000  0.67690000  1.0 -0.6493476115
O  O39  1  0.57960000  0.26780000  0.63950000  1.0 -0.6493476115
O  O40  1  0.49600000  0.29770000  0.39544000  1.0 -1.2460848472
O  O41  1  0.45330000  0.92760000  0.42300000  1.0 -0.6319860749
O  O42  1  0.53610000  0.40880000  0.51563000  1.0 -1.2858888887
O  O43  1  0.49930000  0.91310000  0.56530000  1.0 -0.576447048
O  O44  1  0.34930000  0.58890000  0.32310000  1.0 -0.6493476115
O  O45  1  0.42040000  0.73220000  0.36050000  1.0 -0.6493476115
O  O46  1  0.50400000  0.70230000  0.60456000  1.0 -1.2460848472
O  O47  1  0.54670000  0.07240000  0.57700000  1.0 -0.6319860749
O  O48  1  0.46390000  0.59120000  0.48437000  1.0 -1.283188381
