# DDEC6 charges by PACMAN v1.1 (https://github.com/mtap-research/PACMAN-charge/)
data_YARYEV_ASR_pacman
_symmetry_space_group_name_H-M   'P 1'
_cell_length_a   8.56916000
_cell_length_b   8.56916000
_cell_length_c   14.62100000
_cell_angle_alpha   89.31300000
_cell_angle_beta   90.68700000
_cell_angle_gamma   89.47520000
_symmetry_Int_Tables_number   1
_chemical_formula_structural   CdH3C2N3
_chemical_formula_sum   'Cd4 H12 C8 N12'
_cell_volume   1073.42657003
_cell_formula_units_Z   4
loop_
 _symmetry_equiv_pos_site_id
 _symmetry_equiv_pos_as_xyz
  1  'x, y, z'
loop_
 _atom_site_type_symbol
 _atom_site_label
 _atom_site_symmetry_multiplicity
 _atom_site_fract_x
 _atom_site_fract_y
 _atom_site_fract_z
 _atom_site_occupancy
 _atom_site_charge
Cd  Cd1  1  0.50652000  0.50652000  0.75000000  1.0 0.4059722843
Cd  Cd2  1  0.49348000  0.49348000  0.25000000  1.0 0.4059722843
Cd  Cd3  1  0.50000000  0.00000000  0.00000000  1.0 0.9405067983
Cd  Cd4  1  0.00000000  0.50000000  0.50000000  1.0 0.9336000505
H  H1  1  0.18670000  0.90036000  0.95058000  1.0 0.3232652816
H  H2  1  0.90036000  0.18670000  0.54942000  1.0 0.3232652816
H  H3  1  0.81330000  0.09964000  0.04942000  1.0 0.3232652816
H  H4  1  0.09964000  0.81330000  0.45058000  1.0 0.3232652816
H  H5  1  0.18879000  0.10797000  0.94639000  1.0 0.3288195181
H  H6  1  0.10797000  0.18879000  0.55361000  1.0 0.3288195181
H  H7  1  0.81121000  0.89203000  0.05361000  1.0 0.3288195181
H  H8  1  0.89203000  0.81121000  0.44639000  1.0 0.3288195181
H  H9  1  0.17400000  0.00850000  0.05344000  1.0 0.3132691952
H  H10  1  0.00850000  0.17400000  0.44656000  1.0 0.3132691952
H  H11  1  0.82600000  0.99150000  0.94656000  1.0 0.3132691952
H  H12  1  0.99150000  0.82600000  0.55344000  1.0 0.3132691952
C  C1  1  0.50710000  0.71410000  0.83640000  1.0 -0.0525088933
C  C2  1  0.71410000  0.50710000  0.66360000  1.0 -0.0525088933
C  C3  1  0.49290000  0.28590000  0.16360000  1.0 -0.0586744738
C  C4  1  0.28590000  0.49290000  0.33640000  1.0 -0.0525088933
C  C5  1  0.30100000  0.50840000  0.65860000  1.0 -0.0586744738
C  C6  1  0.50840000  0.30100000  0.84140000  1.0 -0.0586744738
C  C7  1  0.69900000  0.49160000  0.34140000  1.0 -0.0586744738
C  C8  1  0.49160000  0.69900000  0.15860000  1.0 -0.0586744738
N  N1  1  0.51150000  0.81650000  0.88390000  1.0 -0.3538657528
N  N2  1  0.81650000  0.51150000  0.61610000  1.0 -0.3538657528
N  N3  1  0.48850000  0.18350000  0.11610000  1.0 -0.3538657528
N  N4  1  0.18350000  0.48850000  0.38390000  1.0 -0.3538657528
N  N5  1  0.49020000  0.80040000  0.10850000  1.0 -0.3608459559
N  N6  1  0.80040000  0.49020000  0.39150000  1.0 -0.3608459559
N  N7  1  0.50980000  0.19960000  0.89150000  1.0 -0.3608459559
N  N8  1  0.19960000  0.50980000  0.60850000  1.0 -0.3608459559
N  N9  1  0.22550000  0.00490000  0.98570000  1.0 -0.8094303784
N  N10  1  0.00490000  0.22550000  0.51430000  1.0 -0.8094303784
N  N11  1  0.77450000  0.99510000  0.01430000  1.0 -0.8094303784
N  N12  1  0.99510000  0.77450000  0.48570000  1.0 -0.8094303784
