# DDEC6 charges by PACMAN v1.1 (https://github.com/mtap-research/PACMAN-charge/)
data_YARYOF_FSR_pacman
_symmetry_space_group_name_H-M   'P 1'
_cell_length_a   8.17682000
_cell_length_b   8.17682000
_cell_length_c   15.83700000
_cell_angle_alpha   88.61180000
_cell_angle_beta   91.38820000
_cell_angle_gamma   84.79720000
_symmetry_Int_Tables_number   1
_chemical_formula_structural   CdH4(CN)3
_chemical_formula_sum   'Cd4 H16 C12 N12'
_cell_volume   1053.82451021
_cell_formula_units_Z   4
loop_
 _symmetry_equiv_pos_site_id
 _symmetry_equiv_pos_as_xyz
  1  'x, y, z'
loop_
 _atom_site_type_symbol
 _atom_site_label
 _atom_site_symmetry_multiplicity
 _atom_site_fract_x
 _atom_site_fract_y
 _atom_site_fract_z
 _atom_site_occupancy
 _atom_site_charge
Cd  Cd1  1  0.51411000  0.50731000  0.74956000  1.0 0.4593144859
Cd  Cd2  1  0.49269000  0.48589000  0.24956000  1.0 0.4593144859
Cd  Cd3  1  0.49633000  0.99633000  0.00000000  1.0 0.8870541508
Cd  Cd4  1  0.00367000  0.50367000  0.50000000  1.0 0.8845200593
H  H1  1  0.19611000  0.18049000  0.95958000  1.0 0.25886151
H  H2  1  0.81951000  0.80389000  0.45958000  1.0 0.25886151
H  H3  1  0.20807000  0.99923000  0.89921000  1.0 0.25886151
H  H4  1  0.00077000  0.79193000  0.39921000  1.0 0.25886151
H  H5  1  0.12218000  0.85218000  0.01840000  1.0 0.0903696435
H  H6  1  0.14782000  0.87782000  0.51840000  1.0 0.0903696435
H  H7  1  0.10046000  0.03914000  0.07399000  1.0 0.0903696435
H  H8  1  0.96086000  0.89954000  0.57399000  1.0 0.0903696435
H  H9  1  0.89928000  0.95756000  0.92028000  1.0 0.0903696435
H  H10  1  0.04244000  0.10072000  0.42028000  1.0 0.0903696435
H  H11  1  0.87759000  0.14459000  0.97581000  1.0 0.0903696435
H  H12  1  0.85541000  0.12241000  0.47581000  1.0 0.0903696435
H  H13  1  0.79093000  0.99987000  0.09216000  1.0 0.2521407659
H  H14  1  0.00013000  0.20907000  0.59216000  1.0 0.2521407659
H  H15  1  0.80107000  0.82007000  0.03070000  1.0 0.2521407659
H  H16  1  0.17993000  0.19893000  0.53070000  1.0 0.2521407659
C  C1  1  0.50330000  0.71330000  0.83820000  1.0 -0.0208889629
C  C2  1  0.28670000  0.49670000  0.33820000  1.0 -0.0208889629
C  C3  1  0.47980000  0.27060000  0.16420000  1.0 -0.0117150275
C  C4  1  0.72940000  0.52020000  0.66420000  1.0 -0.0117150275
C  C5  1  0.30750000  0.51890000  0.65310000  1.0 -0.0271848218
C  C6  1  0.48110000  0.69250000  0.15310000  1.0 -0.0271848218
C  C7  1  0.53060000  0.30120000  0.84300000  1.0 -0.0464172346
C  C8  1  0.69880000  0.46940000  0.34300000  1.0 -0.0422989175
C  C9  1  0.08720000  0.98380000  0.01250000  1.0 -0.0422989175
C  C10  1  0.01620000  0.91280000  0.51250000  1.0 -0.0422989175
C  C11  1  0.91250000  0.01290000  0.98170000  1.0 -0.0117150275
C  C12  1  0.98710000  0.08750000  0.48170000  1.0 -0.0117150275
N  N1  1  0.50700000  0.81560000  0.89070000  1.0 -0.3850631063
N  N2  1  0.18440000  0.49300000  0.39070000  1.0 -0.3850631063
N  N3  1  0.47862000  0.18802000  0.11110000  1.0 -0.3685805147
N  N4  1  0.81198000  0.52138000  0.61110000  1.0 -0.3685805147
N  N5  1  0.21100000  0.52840000  0.60120000  1.0 -0.3685805147
N  N6  1  0.47160000  0.78900000  0.10120000  1.0 -0.3685805147
N  N7  1  0.53440000  0.20380000  0.89640000  1.0 -0.3638506626
N  N8  1  0.79620000  0.46560000  0.39640000  1.0 -0.3638506626
N  N9  1  0.21390000  0.04670000  0.96280000  1.0 -0.5529068058
N  N10  1  0.95330000  0.78610000  0.46280000  1.0 -0.5529068058
N  N11  1  0.78630000  0.95390000  0.02820000  1.0 -0.5314422791
N  N12  1  0.04610000  0.21370000  0.52820000  1.0 -0.5314422791
