# DDEC6 charges by PACMAN v1.1 (https://github.com/mtap-research/PACMAN-charge/)
data_YARYIZ_ASR_pacman
_symmetry_space_group_name_H-M   'P 1'
_cell_length_a   8.58194000
_cell_length_b   8.58194000
_cell_length_c   14.69210000
_cell_angle_alpha   87.55940000
_cell_angle_beta   92.44060000
_cell_angle_gamma   90.55280000
_symmetry_Int_Tables_number   1
_chemical_formula_structural   CdH3C2N3
_chemical_formula_sum   'Cd4 H12 C8 N12'
_cell_volume   1080.07321541
_cell_formula_units_Z   4
loop_
 _symmetry_equiv_pos_site_id
 _symmetry_equiv_pos_as_xyz
  1  'x, y, z'
loop_
 _atom_site_type_symbol
 _atom_site_label
 _atom_site_symmetry_multiplicity
 _atom_site_fract_x
 _atom_site_fract_y
 _atom_site_fract_z
 _atom_site_occupancy
 _atom_site_charge
Cd  Cd1  1  0.52423000  0.52423000  0.75000000  1.0 0.4157306972
Cd  Cd2  1  0.47577000  0.47577000  0.25000000  1.0 0.4140526774
Cd  Cd3  1  0.50000000  0.00000000  0.00000000  1.0 0.9254555526
Cd  Cd4  1  0.00000000  0.50000000  0.50000000  1.0 0.9178722325
H  H1  1  0.18627000  0.88081000  0.98669000  1.0 0.3295007589
H  H2  1  0.88081000  0.18627000  0.51331000  1.0 0.3194402876
H  H3  1  0.81373000  0.11919000  0.01331000  1.0 0.3194402876
H  H4  1  0.11919000  0.81373000  0.48669000  1.0 0.3194402876
H  H5  1  0.20118000  0.04164000  0.90691000  1.0 0.3295007589
H  H6  1  0.04164000  0.20118000  0.59309000  1.0 0.3295007589
H  H7  1  0.79882000  0.95836000  0.09309000  1.0 0.3295007589
H  H8  1  0.95836000  0.79882000  0.40691000  1.0 0.3295007589
H  H9  1  0.17932000  0.07486000  0.02441000  1.0 0.3194402876
H  H10  1  0.07486000  0.17932000  0.47559000  1.0 0.3194402876
H  H11  1  0.82068000  0.92514000  0.97559000  1.0 0.3194402876
H  H12  1  0.92514000  0.82068000  0.52441000  1.0 0.3194402876
C  C1  1  0.52250000  0.73630000  0.82970000  1.0 -0.0513042414
C  C2  1  0.73630000  0.52250000  0.67030000  1.0 -0.0579206561
C  C3  1  0.47750000  0.26370000  0.17030000  1.0 -0.0513042414
C  C4  1  0.26370000  0.47750000  0.32970000  1.0 -0.0513042414
C  C5  1  0.51850000  0.32250000  0.84810000  1.0 -0.0513042414
C  C6  1  0.32250000  0.51850000  0.65190000  1.0 -0.0513042414
C  C7  1  0.48150000  0.67750000  0.15190000  1.0 -0.0513042414
C  C8  1  0.67750000  0.48150000  0.34810000  1.0 -0.0513042414
N  N1  1  0.52490000  0.83810000  0.87720000  1.0 -0.3624843137
N  N2  1  0.83810000  0.52490000  0.62280000  1.0 -0.3624843137
N  N3  1  0.47510000  0.16190000  0.12280000  1.0 -0.3624843137
N  N4  1  0.16190000  0.47510000  0.37720000  1.0 -0.3624843137
N  N5  1  0.51540000  0.22020000  0.89980000  1.0 -0.3650338826
N  N6  1  0.22020000  0.51540000  0.60020000  1.0 -0.3624843137
N  N7  1  0.48460000  0.77980000  0.10020000  1.0 -0.3650338826
N  N8  1  0.77980000  0.48460000  0.39980000  1.0 -0.3624843137
N  N9  1  0.23110000  0.99930000  0.97640000  1.0 -0.8086682436
N  N10  1  0.99930000  0.23110000  0.52360000  1.0 -0.8086682436
N  N11  1  0.76890000  0.00070000  0.02360000  1.0 -0.8086682436
N  N12  1  0.00070000  0.76890000  0.47640000  1.0 -0.8086682436
