# DDEC6 charges by PACMAN v1.1 (https://github.com/mtap-research/PACMAN-charge/)
data_YARZEZ02_ASR_pacman
_symmetry_space_group_name_H-M   'P 1'
_cell_length_a   11.90870000
_cell_length_b   11.90870000
_cell_length_c   17.06300000
_cell_angle_alpha   90.00000000
_cell_angle_beta   90.00000000
_cell_angle_gamma   91.46970000
_symmetry_Int_Tables_number   1
_chemical_formula_structural   Cd(C2N3)3
_chemical_formula_sum   'Cd4 C24 N36'
_cell_volume   2419.02973249
_cell_formula_units_Z   4
loop_
 _symmetry_equiv_pos_site_id
 _symmetry_equiv_pos_as_xyz
  1  'x, y, z'
loop_
 _atom_site_type_symbol
 _atom_site_label
 _atom_site_symmetry_multiplicity
 _atom_site_fract_x
 _atom_site_fract_y
 _atom_site_fract_z
 _atom_site_occupancy
 _atom_site_charge
Cd  Cd1  1  0.25298000  0.25298000  0.55016000  1.0 1.0678114919
Cd  Cd2  1  0.24702000  0.24702000  0.05016000  1.0 1.0678114919
Cd  Cd3  1  0.75298000  0.75298000  0.94984000  1.0 1.0678114919
Cd  Cd4  1  0.74702000  0.74702000  0.44984000  1.0 1.0678114919
C  C1  1  0.04910000  0.44470000  0.55610000  1.0 0.4909864235
C  C2  1  0.45090000  0.05530000  0.05610000  1.0 0.4909864235
C  C3  1  0.94470000  0.54910000  0.94390000  1.0 0.4909864235
C  C4  1  0.55530000  0.95090000  0.44390000  1.0 0.4909864235
C  C5  1  0.95090000  0.55530000  0.44390000  1.0 0.4909864235
C  C6  1  0.54910000  0.94470000  0.94390000  1.0 0.4909864235
C  C7  1  0.05530000  0.45090000  0.05610000  1.0 0.4909864235
C  C8  1  0.44470000  0.04910000  0.55610000  1.0 0.4909864235
C  C9  1  0.31310000  0.31310000  0.35920000  1.0 0.4204753665
C  C10  1  0.18690000  0.18690000  0.85920000  1.0 0.4204753665
C  C11  1  0.81310000  0.81310000  0.14080000  1.0 0.4204753665
C  C12  1  0.68690000  0.68690000  0.64080000  1.0 0.4204753665
C  C13  1  0.06620000  0.06620000  0.47170000  1.0 0.4149829475
C  C14  1  0.43380000  0.43380000  0.97170000  1.0 0.4204753665
C  C15  1  0.56620000  0.56620000  0.02830000  1.0 0.4204753665
C  C16  1  0.93380000  0.93380000  0.52830000  1.0 0.4204753665
C  C17  1  0.27690000  0.27690000  0.22590000  1.0 0.4909864235
C  C18  1  0.22310000  0.22310000  0.72590000  1.0 0.4909864235
C  C19  1  0.77690000  0.77690000  0.27410000  1.0 0.4909864235
C  C20  1  0.72310000  0.72310000  0.77410000  1.0 0.4909864235
C  C21  1  0.45520000  0.45520000  0.56560000  1.0 0.4909864235
C  C22  1  0.04480000  0.04480000  0.06560000  1.0 0.4836987881
C  C23  1  0.95520000  0.95520000  0.93440000  1.0 0.4909864235
C  C24  1  0.54480000  0.54480000  0.43440000  1.0 0.4909864235
N  N1  1  0.50000000  0.50000000  0.50000000  1.0 -0.4231795194
N  N2  1  0.00000000  0.00000000  0.00000000  1.0 -0.4231795194
N  N3  1  0.00000000  0.50000000  0.50000000  1.0 -0.4779737638
N  N4  1  0.50000000  0.00000000  0.00000000  1.0 -0.4779737638
N  N5  1  0.00000000  0.50000000  0.00000000  1.0 -0.4779737638
N  N6  1  0.50000000  0.00000000  0.50000000  1.0 -0.4779737638
N  N7  1  0.32770000  0.32770000  0.28380000  1.0 -0.4079449223
N  N8  1  0.17230000  0.17230000  0.78380000  1.0 -0.4079449223
N  N9  1  0.82770000  0.82770000  0.21620000  1.0 -0.4079449223
N  N10  1  0.67230000  0.67230000  0.71620000  1.0 -0.4079449223
N  N11  1  0.13540000  0.13540000  0.47420000  1.0 -0.4317159923
N  N12  1  0.36460000  0.36460000  0.97420000  1.0 -0.4415650212
N  N13  1  0.63540000  0.63540000  0.02580000  1.0 -0.4415650212
N  N14  1  0.86460000  0.86460000  0.52580000  1.0 -0.4415650212
N  N15  1  0.00000000  0.00000000  0.50000000  1.0 -0.346886498
N  N16  1  0.50000000  0.50000000  0.00000000  1.0 -0.346886498
N  N17  1  0.32090000  0.32090000  0.42540000  1.0 -0.3711936595
N  N18  1  0.17910000  0.17910000  0.92540000  1.0 -0.3711936595
N  N19  1  0.82090000  0.82090000  0.07460000  1.0 -0.3711936595
N  N20  1  0.67910000  0.67910000  0.57460000  1.0 -0.3711936595
N  N21  1  0.12320000  0.38320000  0.56120000  1.0 -0.4718927192
N  N22  1  0.37680000  0.11680000  0.06120000  1.0 -0.4779737638
N  N23  1  0.88320000  0.62320000  0.93880000  1.0 -0.4779737638
N  N24  1  0.61680000  0.87680000  0.43880000  1.0 -0.4718927192
N  N25  1  0.87680000  0.61680000  0.43880000  1.0 -0.4718927192
N  N26  1  0.62320000  0.88320000  0.93880000  1.0 -0.4779737638
N  N27  1  0.11680000  0.37680000  0.06120000  1.0 -0.4779737638
N  N28  1  0.38320000  0.12320000  0.56120000  1.0 -0.4718927192
N  N29  1  0.39290000  0.39290000  0.59930000  1.0 -0.3968332829
N  N30  1  0.10710000  0.10710000  0.09930000  1.0 -0.3968332829
N  N31  1  0.89290000  0.89290000  0.90070000  1.0 -0.3968332829
N  N32  1  0.60710000  0.60710000  0.40070000  1.0 -0.3968332829
N  N33  1  0.24010000  0.24010000  0.17000000  1.0 -0.4415650212
N  N34  1  0.25990000  0.25990000  0.67000000  1.0 -0.4415650212
N  N35  1  0.74010000  0.74010000  0.33000000  1.0 -0.4415650212
N  N36  1  0.75990000  0.75990000  0.83000000  1.0 -0.4415650212
