# DDEC6 charges by PACMAN v1.1 (https://github.com/mtap-research/PACMAN-charge/)
data_YARZEZ03_FSR_pacman
_symmetry_space_group_name_H-M   'P 1'
_cell_length_a   14.90110000
_cell_length_b   14.90110000
_cell_length_c   14.90110000
_cell_angle_alpha   111.42000000
_cell_angle_beta   109.26500000
_cell_angle_gamma   107.74900000
_symmetry_Int_Tables_number   1
_chemical_formula_structural   Cd(C2N3)3
_chemical_formula_sum   'Cd4 C24 N36'
_cell_volume   2544.40002962
_cell_formula_units_Z   4
loop_
 _symmetry_equiv_pos_site_id
 _symmetry_equiv_pos_as_xyz
  1  'x, y, z'
loop_
 _atom_site_type_symbol
 _atom_site_label
 _atom_site_symmetry_multiplicity
 _atom_site_fract_x
 _atom_site_fract_y
 _atom_site_fract_z
 _atom_site_occupancy
 _atom_site_charge
Cd  Cd1  1  0.49176000  0.78802000  0.70374000  1.0 1.0272470289
Cd  Cd2  1  0.50824000  0.21198000  0.29626000  1.0 1.0272470289
Cd  Cd3  1  0.08428000  0.28802000  0.79626000  1.0 1.0272470289
Cd  Cd4  1  0.91572000  0.71198000  0.20374000  1.0 1.0272470289
C  C1  1  0.70630000  0.80560000  0.90070000  1.0 0.4476567679
C  C2  1  0.29370000  0.19440000  0.09930000  1.0 0.4476567679
C  C3  1  0.90490000  0.30560000  0.59930000  1.0 0.4476567679
C  C4  1  0.09510000  0.69440000  0.40070000  1.0 0.4476567679
C  C5  1  0.29520000  0.59420000  0.70100000  1.0 0.4425190412
C  C6  1  0.70480000  0.40580000  0.29900000  1.0 0.4425190412
C  C7  1  0.89320000  0.09420000  0.79900000  1.0 0.4425190412
C  C8  1  0.10680000  0.90580000  0.20100000  1.0 0.4425190412
C  C9  1  0.23810000  0.47650000  0.76160000  1.0 0.4647558802
C  C10  1  0.76190000  0.52350000  0.23840000  1.0 0.4647558802
C  C11  1  0.71490000  0.97650000  0.73840000  1.0 0.4663601009
C  C12  1  0.28510000  0.02350000  0.26160000  1.0 0.4647558802
C  C13  1  0.48710000  0.57810000  0.50840000  1.0 0.4663601009
C  C14  1  0.51290000  0.02130000  0.09100000  1.0 0.4663601009
C  C15  1  0.06970000  0.47870000  0.99160000  1.0 0.4647558802
C  C16  1  0.93030000  0.92190000  0.40900000  1.0 0.4663601009
C  C17  1  0.51290000  0.42190000  0.49160000  1.0 0.4663601009
C  C18  1  0.48710000  0.97870000  0.90900000  1.0 0.4663601009
C  C19  1  0.93030000  0.52130000  0.00840000  1.0 0.4663601009
C  C20  1  0.06970000  0.07810000  0.59100000  1.0 0.4647558802
C  C21  1  0.73640000  0.72680000  0.00960000  1.0 0.4808179089
C  C22  1  0.26360000  0.27320000  0.99040000  1.0 0.4808179089
C  C23  1  0.71720000  0.22680000  0.49040000  1.0 0.4808179089
C  C24  1  0.28280000  0.77320000  0.50960000  1.0 0.4808179089
N  N1  1  0.77170000  0.79530000  0.97640000  1.0 -0.4000831233
N  N2  1  0.22830000  0.20470000  0.02360000  1.0 -0.4000831233
N  N3  1  0.81890000  0.29530000  0.52360000  1.0 -0.4000831233
N  N4  1  0.18110000  0.70470000  0.47640000  1.0 -0.4000831233
N  N5  1  0.62460000  0.78720000  0.83740000  1.0 -0.4164158679
N  N6  1  0.37540000  0.21280000  0.16260000  1.0 -0.4164158679
N  N7  1  0.94980000  0.28720000  0.66260000  1.0 -0.4164158679
N  N8  1  0.05020000  0.71280000  0.33740000  1.0 -0.4164158679
N  N9  1  0.48830000  0.66090000  0.55900000  1.0 -0.477850305
N  N10  1  0.51170000  0.07070000  0.17260000  1.0 -0.477850305
N  N11  1  0.10190000  0.42930000  0.94100000  1.0 -0.477850305
N  N12  1  0.89810000  0.83910000  0.32740000  1.0 -0.477850305
N  N13  1  0.51170000  0.33910000  0.44100000  1.0 -0.477850305
N  N14  1  0.48830000  0.92930000  0.82740000  1.0 -0.477850305
N  N15  1  0.89810000  0.57070000  0.05900000  1.0 -0.4749963707
N  N16  1  0.10190000  0.16090000  0.67260000  1.0 -0.477850305
N  N17  1  0.35790000  0.65730000  0.70060000  1.0 -0.4000831233
N  N18  1  0.64210000  0.34270000  0.29940000  1.0 -0.4000831233
N  N19  1  0.95670000  0.15730000  0.79940000  1.0 -0.4000831233
N  N20  1  0.04330000  0.84270000  0.20060000  1.0 -0.4000831233
N  N21  1  0.21910000  0.51990000  0.69920000  1.0 -0.4112208611
N  N22  1  0.78090000  0.48010000  0.30080000  1.0 -0.4112208611
N  N23  1  0.82070000  0.01990000  0.80080000  1.0 -0.4112208611
N  N24  1  0.17930000  0.98010000  0.19920000  1.0 -0.4164158679
N  N25  1  0.22180000  0.42280000  0.79900000  1.0 -0.4000831233
N  N26  1  0.77820000  0.57720000  0.20100000  1.0 -0.3942473656
N  N27  1  0.62380000  0.92280000  0.70100000  1.0 -0.4000831233
N  N28  1  0.37620000  0.07720000  0.29900000  1.0 -0.4000831233
N  N29  1  0.50000000  0.50000000  0.50000000  1.0 -0.4000831233
N  N30  1  0.50000000  0.00000000  0.00000000  1.0 -0.4000831233
N  N31  1  0.00000000  0.50000000  0.00000000  1.0 -0.4000831233
N  N32  1  0.00000000  0.00000000  0.50000000  1.0 -0.4000831233
N  N33  1  0.76100000  0.69290000  0.06810000  1.0 -0.4112208611
N  N34  1  0.23900000  0.30710000  0.93190000  1.0 -0.4164158679
N  N35  1  0.62480000  0.19290000  0.43190000  1.0 -0.4112208611
N  N36  1  0.37520000  0.80710000  0.56810000  1.0 -0.4112208611
