# DDEC6 charges by PACMAN v1.1 (https://github.com/mtap-research/PACMAN-charge/)
data_YASVOG_ASR_pacman
_symmetry_space_group_name_H-M   'P 1'
_cell_length_a   17.50220000
_cell_length_b   17.50220000
_cell_length_c   17.50220000
_cell_angle_alpha   64.73810000
_cell_angle_beta   64.73810000
_cell_angle_gamma   64.73810000
_symmetry_Int_Tables_number   1
_chemical_formula_structural   CuH11C19N4O5
_chemical_formula_sum   'Cu6 H66 C114 N24 O30'
_cell_volume   4184.22318628
_cell_formula_units_Z   6
loop_
 _symmetry_equiv_pos_site_id
 _symmetry_equiv_pos_as_xyz
  1  'x, y, z'
loop_
 _atom_site_type_symbol
 _atom_site_label
 _atom_site_symmetry_multiplicity
 _atom_site_fract_x
 _atom_site_fract_y
 _atom_site_fract_z
 _atom_site_occupancy
 _atom_site_charge
Cu  Cu1  1  0.49596000  0.92742000  0.49596000  1.0 0.815643478
Cu  Cu2  1  0.92742000  0.49596000  0.49596000  1.0 0.815643478
Cu  Cu3  1  0.49596000  0.49596000  0.92742000  1.0 0.815643478
Cu  Cu4  1  0.07258000  0.50404000  0.50404000  1.0 0.815643478
Cu  Cu5  1  0.50404000  0.07258000  0.50404000  1.0 0.815643478
Cu  Cu6  1  0.50404000  0.50404000  0.07258000  1.0 0.814214707
H  H1  1  0.22730000  0.01030000  0.51290000  1.0 0.0892939375
H  H2  1  0.01030000  0.51290000  0.22730000  1.0 0.0892939375
H  H3  1  0.51290000  0.22730000  0.01030000  1.0 0.0892939375
H  H4  1  0.98970000  0.77270000  0.48710000  1.0 0.0892939375
H  H5  1  0.48710000  0.98970000  0.77270000  1.0 0.0892939375
H  H6  1  0.77270000  0.48710000  0.98970000  1.0 0.0892939375
H  H7  1  0.77270000  0.98970000  0.48710000  1.0 0.0892939375
H  H8  1  0.98970000  0.48710000  0.77270000  1.0 0.0892939375
H  H9  1  0.48710000  0.77270000  0.98970000  1.0 0.0892939375
H  H10  1  0.01030000  0.22730000  0.51290000  1.0 0.0892939375
H  H11  1  0.51290000  0.01030000  0.22730000  1.0 0.0892939375
H  H12  1  0.22730000  0.51290000  0.01030000  1.0 0.0892939375
H  H13  1  0.23180000  0.23180000  0.53140000  1.0 0.1314973589
H  H14  1  0.23180000  0.53140000  0.23180000  1.0 0.1314973589
H  H15  1  0.53140000  0.23180000  0.23180000  1.0 0.1314973589
H  H16  1  0.76820000  0.76820000  0.46860000  1.0 0.1314973589
H  H17  1  0.46860000  0.76820000  0.76820000  1.0 0.1314973589
H  H18  1  0.76820000  0.46860000  0.76820000  1.0 0.1314973589
H  H19  1  0.21500000  0.00230000  0.55360000  1.0 0.100051642
H  H20  1  0.00230000  0.55360000  0.21500000  1.0 0.100051642
H  H21  1  0.55360000  0.21500000  0.00230000  1.0 0.100051642
H  H22  1  0.99770000  0.78500000  0.44640000  1.0 0.100051642
H  H23  1  0.44640000  0.99770000  0.78500000  1.0 0.100051642
H  H24  1  0.78500000  0.44640000  0.99770000  1.0 0.100051642
H  H25  1  0.78500000  0.99770000  0.44640000  1.0 0.100051642
H  H26  1  0.99770000  0.44640000  0.78500000  1.0 0.100051642
H  H27  1  0.44640000  0.78500000  0.99770000  1.0 0.100051642
H  H28  1  0.00230000  0.21500000  0.55360000  1.0 0.100051642
H  H29  1  0.55360000  0.00230000  0.21500000  1.0 0.100051642
H  H30  1  0.21500000  0.55360000  0.00230000  1.0 0.100051642
H  H31  1  0.94010000  0.14810000  0.50600000  1.0 0.1446498409
H  H32  1  0.14810000  0.50600000  0.94010000  1.0 0.1446498409
H  H33  1  0.50600000  0.94010000  0.14810000  1.0 0.1446498409
H  H34  1  0.85190000  0.05990000  0.49400000  1.0 0.1446498409
H  H35  1  0.49400000  0.85190000  0.05990000  1.0 0.1503784943
H  H36  1  0.05990000  0.49400000  0.85190000  1.0 0.1503784943
H  H37  1  0.05990000  0.85190000  0.49400000  1.0 0.1446498409
H  H38  1  0.85190000  0.49400000  0.05990000  1.0 0.1503784943
H  H39  1  0.49400000  0.05990000  0.85190000  1.0 0.1446498409
H  H40  1  0.14810000  0.94010000  0.50600000  1.0 0.1503784943
H  H41  1  0.50600000  0.14810000  0.94010000  1.0 0.1446498409
H  H42  1  0.94010000  0.50600000  0.14810000  1.0 0.1503784943
H  H43  1  0.86420000  0.05860000  0.46740000  1.0 0.1503784943
H  H44  1  0.05860000  0.46740000  0.86420000  1.0 0.1503784943
H  H45  1  0.46740000  0.86420000  0.05860000  1.0 0.1503784943
H  H46  1  0.94140000  0.13580000  0.53260000  1.0 0.1503784943
H  H47  1  0.53260000  0.94140000  0.13580000  1.0 0.1503784943
H  H48  1  0.13580000  0.53260000  0.94140000  1.0 0.1503784943
H  H49  1  0.13580000  0.94140000  0.53260000  1.0 0.1503784943
H  H50  1  0.94140000  0.53260000  0.13580000  1.0 0.1503784943
H  H51  1  0.53260000  0.13580000  0.94140000  1.0 0.1503784943
H  H52  1  0.05860000  0.86420000  0.46740000  1.0 0.1503784943
H  H53  1  0.46740000  0.05860000  0.86420000  1.0 0.1503784943
H  H54  1  0.86420000  0.46740000  0.05860000  1.0 0.1503784943
H  H55  1  0.87170000  0.97300000  0.55300000  1.0 0.1185633744
H  H56  1  0.97300000  0.55300000  0.87170000  1.0 0.1185633744
H  H57  1  0.55300000  0.87170000  0.97300000  1.0 0.1185633744
H  H58  1  0.02700000  0.12830000  0.44700000  1.0 0.1185633744
H  H59  1  0.44700000  0.02700000  0.12830000  1.0 0.1185633744
H  H60  1  0.12830000  0.44700000  0.02700000  1.0 0.1185633744
H  H61  1  0.12830000  0.02700000  0.44700000  1.0 0.1185633744
H  H62  1  0.02700000  0.44700000  0.12830000  1.0 0.1185633744
H  H63  1  0.44700000  0.12830000  0.02700000  1.0 0.1185633744
H  H64  1  0.97300000  0.87170000  0.55300000  1.0 0.1185633744
H  H65  1  0.55300000  0.97300000  0.87170000  1.0 0.1185633744
H  H66  1  0.87170000  0.55300000  0.97300000  1.0 0.1185633744
C  C1  1  0.33649000  0.07179000  0.52339000  1.0 0.4519830203
C  C2  1  0.07179000  0.52339000  0.33649000  1.0 0.4519830203
C  C3  1  0.52339000  0.33649000  0.07179000  1.0 0.4519830203
C  C4  1  0.92821000  0.66351000  0.47661000  1.0 0.4519830203
C  C5  1  0.47661000  0.92821000  0.66351000  1.0 0.4519830203
C  C6  1  0.66351000  0.47661000  0.92821000  1.0 0.4519830203
C  C7  1  0.66351000  0.92821000  0.47661000  1.0 0.4519830203
C  C8  1  0.92821000  0.47661000  0.66351000  1.0 0.4519830203
C  C9  1  0.47661000  0.66351000  0.92821000  1.0 0.4519830203
C  C10  1  0.07179000  0.33649000  0.52339000  1.0 0.4519830203
C  C11  1  0.52339000  0.07179000  0.33649000  1.0 0.4519830203
C  C12  1  0.33649000  0.52339000  0.07179000  1.0 0.4519830203
C  C13  1  0.24620000  0.11390000  0.52180000  1.0 -0.024423323
C  C14  1  0.11390000  0.52180000  0.24620000  1.0 -0.0292150056
C  C15  1  0.52180000  0.24620000  0.11390000  1.0 -0.0292150056
C  C16  1  0.88610000  0.75380000  0.47820000  1.0 -0.0292150056
C  C17  1  0.47820000  0.88610000  0.75380000  1.0 -0.0292150056
C  C18  1  0.75380000  0.47820000  0.88610000  1.0 -0.0292150056
C  C19  1  0.75380000  0.88610000  0.47820000  1.0 -0.0292150056
C  C20  1  0.88610000  0.47820000  0.75380000  1.0 -0.0292150056
C  C21  1  0.47820000  0.75380000  0.88610000  1.0 -0.0292150056
C  C22  1  0.11390000  0.24620000  0.52180000  1.0 -0.0292150056
C  C23  1  0.52180000  0.11390000  0.24620000  1.0 -0.0292150056
C  C24  1  0.24620000  0.52180000  0.11390000  1.0 -0.0292150056
C  C25  1  0.19960000  0.06930000  0.51610000  1.0 -0.0620279015
C  C26  1  0.06930000  0.51610000  0.19960000  1.0 -0.0620279015
C  C27  1  0.51610000  0.19960000  0.06930000  1.0 -0.0620279015
C  C28  1  0.93070000  0.80040000  0.48390000  1.0 -0.0620279015
C  C29  1  0.48390000  0.93070000  0.80040000  1.0 -0.0620279015
C  C30  1  0.80040000  0.48390000  0.93070000  1.0 -0.0620279015
C  C31  1  0.80040000  0.93070000  0.48390000  1.0 -0.0620279015
C  C32  1  0.93070000  0.48390000  0.80040000  1.0 -0.0620279015
C  C33  1  0.48390000  0.80040000  0.93070000  1.0 -0.0620279015
C  C34  1  0.06930000  0.19960000  0.51610000  1.0 -0.0620279015
C  C35  1  0.51610000  0.06930000  0.19960000  1.0 -0.0620279015
C  C36  1  0.19960000  0.51610000  0.06930000  1.0 -0.0620279015
C  C37  1  0.11265000  0.11265000  0.51500000  1.0 0.0292469846
C  C38  1  0.11265000  0.51500000  0.11265000  1.0 0.0292469846
C  C39  1  0.51500000  0.11265000  0.11265000  1.0 0.0292469846
C  C40  1  0.88735000  0.88735000  0.48500000  1.0 0.0292469846
C  C41  1  0.48500000  0.88735000  0.88735000  1.0 0.0292469846
C  C42  1  0.88735000  0.48500000  0.88735000  1.0 0.0292469846
C  C43  1  0.20145000  0.20145000  0.52580000  1.0 -0.0999049731
C  C44  1  0.20145000  0.52580000  0.20145000  1.0 -0.0999049731
C  C45  1  0.52580000  0.20145000  0.20145000  1.0 -0.0999049731
C  C46  1  0.79855000  0.79855000  0.47420000  1.0 -0.0999049731
C  C47  1  0.47420000  0.79855000  0.79855000  1.0 -0.0999049731
C  C48  1  0.79855000  0.47420000  0.79855000  1.0 -0.0999049731
C  C49  1  0.98380000  0.09240000  0.50510000  1.0 -0.2302745649
C  C50  1  0.09240000  0.50510000  0.98380000  1.0 -0.2302745649
C  C51  1  0.50510000  0.98380000  0.09240000  1.0 -0.2302745649
C  C52  1  0.90760000  0.01620000  0.49490000  1.0 -0.2302745649
C  C53  1  0.49490000  0.90760000  0.01620000  1.0 -0.2302745649
C  C54  1  0.01620000  0.49490000  0.90760000  1.0 -0.2302745649
C  C55  1  0.01620000  0.90760000  0.49490000  1.0 -0.2302745649
C  C56  1  0.90760000  0.49490000  0.01620000  1.0 -0.2302745649
C  C57  1  0.49490000  0.01620000  0.90760000  1.0 -0.2302745649
C  C58  1  0.09240000  0.98380000  0.50510000  1.0 -0.2302745649
C  C59  1  0.50510000  0.09240000  0.98380000  1.0 -0.2302745649
C  C60  1  0.98380000  0.50510000  0.09240000  1.0 -0.2302745649
C  C61  1  0.97800000  0.02200000  0.50000000  1.0 0.1834942033
C  C62  1  0.02200000  0.50000000  0.97800000  1.0 0.1834942033
C  C63  1  0.50000000  0.97800000  0.02200000  1.0 0.1834942033
C  C64  1  0.02200000  0.97800000  0.50000000  1.0 0.1834942033
C  C65  1  0.97800000  0.50000000  0.02200000  1.0 0.1834942033
C  C66  1  0.50000000  0.02200000  0.97800000  1.0 0.1834942033
C  C67  1  0.90550000  0.00300000  0.49370000  1.0 -0.2083303091
C  C68  1  0.00300000  0.49370000  0.90550000  1.0 -0.2083303091
C  C69  1  0.49370000  0.90550000  0.00300000  1.0 -0.2083303091
C  C70  1  0.99700000  0.09450000  0.50630000  1.0 -0.2083303091
C  C71  1  0.50630000  0.99700000  0.09450000  1.0 -0.2083303091
C  C72  1  0.09450000  0.50630000  0.99700000  1.0 -0.2083303091
C  C73  1  0.09450000  0.99700000  0.50630000  1.0 -0.2083303091
C  C74  1  0.99700000  0.50630000  0.09450000  1.0 -0.2083303091
C  C75  1  0.50630000  0.09450000  0.99700000  1.0 -0.2083303091
C  C76  1  0.00300000  0.90550000  0.49370000  1.0 -0.2083303091
C  C77  1  0.49370000  0.00300000  0.90550000  1.0 -0.2083303091
C  C78  1  0.90550000  0.49370000  0.00300000  1.0 -0.2083303091
C  C79  1  0.23700000  0.11140000  0.53740000  1.0 -0.0292150056
C  C80  1  0.11140000  0.53740000  0.23700000  1.0 -0.0292150056
C  C81  1  0.53740000  0.23700000  0.11140000  1.0 -0.0292150056
C  C82  1  0.88860000  0.76300000  0.46260000  1.0 -0.0292150056
C  C83  1  0.46260000  0.88860000  0.76300000  1.0 -0.0292150056
C  C84  1  0.76300000  0.46260000  0.88860000  1.0 -0.0292150056
C  C85  1  0.76300000  0.88860000  0.46260000  1.0 -0.0292150056
C  C86  1  0.88860000  0.46260000  0.76300000  1.0 -0.0292150056
C  C87  1  0.46260000  0.76300000  0.88860000  1.0 -0.0292150056
C  C88  1  0.11140000  0.23700000  0.53740000  1.0 -0.0292150056
C  C89  1  0.53740000  0.11140000  0.23700000  1.0 -0.0292150056
C  C90  1  0.23700000  0.53740000  0.11140000  1.0 -0.0292150056
C  C91  1  0.18740000  0.06280000  0.55160000  1.0 -0.0432118942
C  C92  1  0.06280000  0.55160000  0.18740000  1.0 -0.0432118942
C  C93  1  0.55160000  0.18740000  0.06280000  1.0 -0.0432118942
C  C94  1  0.93720000  0.81260000  0.44840000  1.0 -0.0432118942
C  C95  1  0.44840000  0.93720000  0.81260000  1.0 -0.0432118942
C  C96  1  0.81260000  0.44840000  0.93720000  1.0 -0.0432118942
C  C97  1  0.81260000  0.93720000  0.44840000  1.0 -0.0432118942
C  C98  1  0.93720000  0.44840000  0.81260000  1.0 -0.0432118942
C  C99  1  0.44840000  0.81260000  0.93720000  1.0 -0.0432118942
C  C100  1  0.06280000  0.18740000  0.55160000  1.0 -0.0432118942
C  C101  1  0.55160000  0.06280000  0.18740000  1.0 -0.0432118942
C  C102  1  0.18740000  0.55160000  0.06280000  1.0 -0.0432118942
C  C103  1  0.09810000  0.09810000  0.56330000  1.0 0.0644378295
C  C104  1  0.09810000  0.56330000  0.09810000  1.0 0.0644378295
C  C105  1  0.56330000  0.09810000  0.09810000  1.0 0.0644378295
C  C106  1  0.90190000  0.90190000  0.43670000  1.0 0.0644378295
C  C107  1  0.43670000  0.90190000  0.90190000  1.0 0.0644378295
C  C108  1  0.90190000  0.43670000  0.90190000  1.0 0.0644378295
C  C109  1  0.19995000  0.19995000  0.53480000  1.0 -0.0999049731
C  C110  1  0.19995000  0.53480000  0.19995000  1.0 -0.0999049731
C  C111  1  0.53480000  0.19995000  0.19995000  1.0 -0.0999049731
C  C112  1  0.80005000  0.80005000  0.46520000  1.0 -0.0999049731
C  C113  1  0.46520000  0.80005000  0.80005000  1.0 -0.0999049731
C  C114  1  0.80005000  0.46520000  0.80005000  1.0 -0.0999049731
N  N1  1  0.06600000  0.06600000  0.50870000  1.0 0.2268361554
N  N2  1  0.06600000  0.50870000  0.06600000  1.0 0.2268361554
N  N3  1  0.50870000  0.06600000  0.06600000  1.0 0.2180015534
N  N4  1  0.93400000  0.93400000  0.49130000  1.0 0.2180015534
N  N5  1  0.49130000  0.93400000  0.93400000  1.0 0.2180015534
N  N6  1  0.93400000  0.49130000  0.93400000  1.0 0.2268361554
N  N7  1  0.05110000  0.94890000  0.50000000  1.0 0.1446498409
N  N8  1  0.94890000  0.50000000  0.05110000  1.0 0.1446498409
N  N9  1  0.50000000  0.05110000  0.94890000  1.0 0.1446498409
N  N10  1  0.94890000  0.05110000  0.50000000  1.0 0.1446498409
N  N11  1  0.05110000  0.50000000  0.94890000  1.0 0.1446498409
N  N12  1  0.50000000  0.94890000  0.05110000  1.0 0.1446498409
N  N13  1  0.10450000  0.98120000  0.50580000  1.0 -0.2872304364
N  N14  1  0.98120000  0.50580000  0.10450000  1.0 -0.2872304364
N  N15  1  0.50580000  0.10450000  0.98120000  1.0 -0.2872304364
N  N16  1  0.01880000  0.89550000  0.49420000  1.0 -0.2872304364
N  N17  1  0.49420000  0.01880000  0.89550000  1.0 -0.2872304364
N  N18  1  0.89550000  0.49420000  0.01880000  1.0 -0.2872304364
N  N19  1  0.89550000  0.01880000  0.49420000  1.0 -0.2872304364
N  N20  1  0.01880000  0.49420000  0.89550000  1.0 -0.2872304364
N  N21  1  0.49420000  0.89550000  0.01880000  1.0 -0.2872304364
N  N22  1  0.98120000  0.10450000  0.50580000  1.0 -0.2872304364
N  N23  1  0.50580000  0.98120000  0.10450000  1.0 -0.2872304364
N  N24  1  0.10450000  0.50580000  0.98120000  1.0 -0.2872304364
O  O1  1  0.37027000  0.99357000  0.51692000  1.0 -0.5062381197
O  O2  1  0.99357000  0.51692000  0.37027000  1.0 -0.5062381197
O  O3  1  0.51692000  0.37027000  0.99357000  1.0 -0.5062381197
O  O4  1  0.00643000  0.62973000  0.48308000  1.0 -0.5062381197
O  O5  1  0.48308000  0.00643000  0.62973000  1.0 -0.5062381197
O  O6  1  0.62973000  0.48308000  0.00643000  1.0 -0.5062381197
O  O7  1  0.62973000  0.00643000  0.48308000  1.0 -0.5062381197
O  O8  1  0.00643000  0.48308000  0.62973000  1.0 -0.5062381197
O  O9  1  0.48308000  0.62973000  0.00643000  1.0 -0.5062381197
O  O10  1  0.99357000  0.37027000  0.51692000  1.0 -0.5062381197
O  O11  1  0.51692000  0.99357000  0.37027000  1.0 -0.5062381197
O  O12  1  0.37027000  0.51692000  0.99357000  1.0 -0.5062381197
O  O13  1  0.37661000  0.11652000  0.52203000  1.0 -0.4666343325
O  O14  1  0.11652000  0.52203000  0.37661000  1.0 -0.4666343325
O  O15  1  0.52203000  0.37661000  0.11652000  1.0 -0.4666343325
O  O16  1  0.88348000  0.62339000  0.47797000  1.0 -0.4666343325
O  O17  1  0.47797000  0.88348000  0.62339000  1.0 -0.4666343325
O  O18  1  0.62339000  0.47797000  0.88348000  1.0 -0.4666343325
O  O19  1  0.62339000  0.88348000  0.47797000  1.0 -0.4666343325
O  O20  1  0.88348000  0.47797000  0.62339000  1.0 -0.4666343325
O  O21  1  0.47797000  0.62339000  0.88348000  1.0 -0.4666343325
O  O22  1  0.11652000  0.37661000  0.52203000  1.0 -0.4666343325
O  O23  1  0.52203000  0.11652000  0.37661000  1.0 -0.4666343325
O  O24  1  0.37661000  0.52203000  0.11652000  1.0 -0.4666343325
O  O25  1  0.94780000  0.94780000  0.43910000  1.0 0.2180015534
O  O26  1  0.94780000  0.43910000  0.94780000  1.0 0.2180015534
O  O27  1  0.43910000  0.94780000  0.94780000  1.0 0.2180015534
O  O28  1  0.05220000  0.05220000  0.56090000  1.0 0.2180015534
O  O29  1  0.56090000  0.05220000  0.05220000  1.0 0.2180015534
O  O30  1  0.05220000  0.56090000  0.05220000  1.0 0.2180015534
