# DDEC6 charges by PACMAN v1.1 (https://github.com/mtap-research/PACMAN-charge/)
data_YAVTUN_ASR_pacman
_symmetry_space_group_name_H-M   'P 1'
_cell_length_a   13.51900000
_cell_length_b   15.99900000
_cell_length_c   15.52800000
_cell_angle_alpha   90.00000000
_cell_angle_beta   112.64300000
_cell_angle_gamma   90.00000000
_symmetry_Int_Tables_number   1
_chemical_formula_structural   Nd2H12C28N4O13
_chemical_formula_sum   'Nd4 H24 C56 N8 O26'
_cell_volume   3099.68608776
_cell_formula_units_Z   2
loop_
 _symmetry_equiv_pos_site_id
 _symmetry_equiv_pos_as_xyz
  1  'x, y, z'
loop_
 _atom_site_type_symbol
 _atom_site_label
 _atom_site_symmetry_multiplicity
 _atom_site_fract_x
 _atom_site_fract_y
 _atom_site_fract_z
 _atom_site_occupancy
 _atom_site_charge
Nd  Nd1  1  0.40771000  0.95828000  0.57320000  1.0 2.1627008971
Nd  Nd2  1  0.09229000  0.95828000  0.42680000  1.0 2.1627008971
Nd  Nd3  1  0.59229000  0.04172000  0.42680000  1.0 2.1627008971
Nd  Nd4  1  0.90771000  0.04172000  0.57320000  1.0 2.1627008971
H  H1  1  0.51110000  0.04730000  0.88520000  1.0 0.1429982756
H  H2  1  0.98890000  0.04730000  0.11480000  1.0 0.1429982756
H  H3  1  0.48890000  0.95270000  0.11480000  1.0 0.1429982756
H  H4  1  0.01110000  0.95270000  0.88520000  1.0 0.1429982756
H  H5  1  0.14140000  0.02300000  0.78220000  1.0 0.1429982756
H  H6  1  0.35860000  0.02300000  0.21780000  1.0 0.1429982756
H  H7  1  0.85860000  0.97700000  0.21780000  1.0 0.1429982756
H  H8  1  0.64140000  0.97700000  0.78220000  1.0 0.1429982756
H  H9  1  0.42740000  0.06340000  0.98960000  1.0 0.1228435245
H  H10  1  0.07260000  0.06340000  0.01040000  1.0 0.1228435245
H  H11  1  0.57260000  0.93660000  0.01040000  1.0 0.1228435245
H  H12  1  0.92740000  0.93660000  0.98960000  1.0 0.1228435245
H  H13  1  0.52560000  0.30850000  0.48300000  1.0 0.1429982756
H  H14  1  0.97440000  0.30850000  0.51700000  1.0 0.1429982756
H  H15  1  0.47440000  0.69150000  0.51700000  1.0 0.1429982756
H  H16  1  0.02560000  0.69150000  0.48300000  1.0 0.1429982756
H  H17  1  0.29960000  0.36890000  0.64210000  1.0 0.1429982756
H  H18  1  0.20040000  0.36890000  0.35790000  1.0 0.1429982756
H  H19  1  0.70040000  0.63110000  0.35790000  1.0 0.1429982756
H  H20  1  0.79960000  0.63110000  0.64210000  1.0 0.1429982756
H  H21  1  0.38650000  0.47500000  0.59710000  1.0 0.1320590619
H  H22  1  0.11350000  0.47500000  0.40290000  1.0 0.1320590619
H  H23  1  0.61350000  0.52500000  0.40290000  1.0 0.1320590619
H  H24  1  0.88650000  0.52500000  0.59710000  1.0 0.1320590619
C  C1  1  0.19060000  0.00880000  0.64250000  1.0 0.6894556936
C  C2  1  0.30940000  0.00880000  0.35750000  1.0 0.6894556936
C  C3  1  0.80940000  0.99120000  0.35750000  1.0 0.6894556936
C  C4  1  0.69060000  0.99120000  0.64250000  1.0 0.6894556936
C  C5  1  0.37640000  0.02560000  0.77120000  1.0 0.3615414743
C  C6  1  0.12360000  0.02560000  0.22880000  1.0 0.3615414743
C  C7  1  0.62360000  0.97440000  0.22880000  1.0 0.3615414743
C  C8  1  0.87640000  0.97440000  0.77120000  1.0 0.3615414743
C  C9  1  0.45660000  0.16640000  0.53400000  1.0 0.6619280633
C  C10  1  0.04340000  0.16640000  0.46600000  1.0 0.6619280633
C  C11  1  0.54340000  0.83360000  0.46600000  1.0 0.6619280633
C  C12  1  0.95660000  0.83360000  0.53400000  1.0 0.6619280633
C  C13  1  0.26560000  0.01830000  0.74030000  1.0 -0.1408219281
C  C14  1  0.23440000  0.01830000  0.25970000  1.0 -0.1408219281
C  C15  1  0.73440000  0.98170000  0.25970000  1.0 -0.1408219281
C  C16  1  0.76560000  0.98170000  0.74030000  1.0 -0.1408219281
C  C17  1  0.43700000  0.04250000  0.86460000  1.0 -0.1782907899
C  C18  1  0.06300000  0.04250000  0.13540000  1.0 -0.1782907899
C  C19  1  0.56300000  0.95750000  0.13540000  1.0 -0.1782907899
C  C20  1  0.93700000  0.95750000  0.86460000  1.0 -0.1782907899
C  C21  1  0.43940000  0.25530000  0.55090000  1.0 -0.1307592932
C  C22  1  0.06060000  0.25530000  0.44910000  1.0 -0.1307592932
C  C23  1  0.56060000  0.74470000  0.44910000  1.0 -0.1307592932
C  C24  1  0.93940000  0.74470000  0.55090000  1.0 -0.1307592932
C  C25  1  0.21550000  0.02790000  0.80290000  1.0 -0.1229045856
C  C26  1  0.28450000  0.02790000  0.19710000  1.0 -0.1229045856
C  C27  1  0.78450000  0.97210000  0.19710000  1.0 -0.1229045856
C  C28  1  0.71550000  0.97210000  0.80290000  1.0 -0.1229045856
C  C29  1  0.38690000  0.05210000  0.92710000  1.0 -0.1229045856
C  C30  1  0.11310000  0.05210000  0.07290000  1.0 -0.1229045856
C  C31  1  0.61310000  0.94790000  0.07290000  1.0 -0.1229045856
C  C32  1  0.88690000  0.94790000  0.92710000  1.0 -0.1229045856
C  C33  1  0.48420000  0.32000000  0.51760000  1.0 -0.1045755886
C  C34  1  0.01580000  0.32000000  0.48240000  1.0 -0.1045755886
C  C35  1  0.51580000  0.68000000  0.48240000  1.0 -0.1045755886
C  C36  1  0.98420000  0.68000000  0.51760000  1.0 -0.1103606332
C  C37  1  0.36600000  0.27130000  0.59690000  1.0 0.3615414743
C  C38  1  0.13400000  0.27130000  0.40310000  1.0 0.3615414743
C  C39  1  0.63400000  0.72870000  0.40310000  1.0 0.3615414743
C  C40  1  0.86600000  0.72870000  0.59690000  1.0 0.3615414743
C  C41  1  0.27610000  0.04480000  0.89620000  1.0 0.1530486774
C  C42  1  0.22390000  0.04480000  0.10380000  1.0 0.1530486774
C  C43  1  0.72390000  0.95520000  0.10380000  1.0 0.1530486774
C  C44  1  0.77610000  0.95520000  0.89620000  1.0 0.1530486774
C  C45  1  0.46600000  0.40240000  0.53700000  1.0 0.1429982756
C  C46  1  0.03400000  0.40240000  0.46300000  1.0 0.1429982756
C  C47  1  0.53400000  0.59760000  0.46300000  1.0 0.1429982756
C  C48  1  0.96600000  0.59760000  0.53700000  1.0 0.1429982756
C  C49  1  0.34600000  0.35590000  0.61300000  1.0 -0.1898299921
C  C50  1  0.15400000  0.35590000  0.38700000  1.0 -0.1898299921
C  C51  1  0.65400000  0.64410000  0.38700000  1.0 -0.1898299921
C  C52  1  0.84600000  0.64410000  0.61300000  1.0 -0.1898299921
C  C53  1  0.39800000  0.41970000  0.58400000  1.0 -0.1103606332
C  C54  1  0.10200000  0.41970000  0.41600000  1.0 -0.1103606332
C  C55  1  0.60200000  0.58030000  0.41600000  1.0 -0.1103606332
C  C56  1  0.89800000  0.58030000  0.58400000  1.0 -0.1103606332
N  N1  1  0.21790000  0.04660000  0.95720000  1.0 -0.1307592932
N  N2  1  0.28210000  0.04660000  0.04280000  1.0 -0.1307592932
N  N3  1  0.78210000  0.95340000  0.04280000  1.0 -0.1307592932
N  N4  1  0.71790000  0.95340000  0.95720000  1.0 -0.1307592932
N  N5  1  0.51300000  0.46330000  0.49600000  1.0 -0.1229045856
N  N6  1  0.98700000  0.46330000  0.50400000  1.0 -0.1229045856
N  N7  1  0.48700000  0.53670000  0.50400000  1.0 -0.1229045856
N  N8  1  0.01300000  0.53670000  0.49600000  1.0 -0.1229045856
O  O1  1  0.23570000  0.98950000  0.58590000  1.0 -0.6589032356
O  O2  1  0.26430000  0.98950000  0.41410000  1.0 -0.6589032356
O  O3  1  0.76430000  0.01050000  0.41410000  1.0 -0.6589032356
O  O4  1  0.73570000  0.01050000  0.58590000  1.0 -0.6589032356
O  O5  1  0.42930000  0.00950000  0.71610000  1.0 -0.6849620286
O  O6  1  0.07070000  0.00950000  0.28390000  1.0 -0.6860764567
O  O7  1  0.57070000  0.99050000  0.28390000  1.0 -0.6860764567
O  O8  1  0.92930000  0.99050000  0.71610000  1.0 -0.6860764567
O  O9  1  0.25000000  0.84680000  0.50000000  1.0 -0.8112828377
O  O10  1  0.75000000  0.15320000  0.50000000  1.0 -0.8112828377
O  O11  1  0.40780000  0.11240000  0.55650000  1.0 -0.5480812136
O  O12  1  0.09220000  0.11240000  0.44350000  1.0 -0.5480812136
O  O13  1  0.59220000  0.88760000  0.44350000  1.0 -0.5480812136
O  O14  1  0.90780000  0.88760000  0.55650000  1.0 -0.5480812136
O  O15  1  0.59240000  0.98960000  0.61090000  1.0 -0.6501417625
O  O16  1  0.90760000  0.98960000  0.38910000  1.0 -0.6501417625
O  O17  1  0.40760000  0.01040000  0.38910000  1.0 -0.6501417625
O  O18  1  0.09240000  0.01040000  0.61090000  1.0 -0.6501417625
O  O19  1  0.47210000  0.84660000  0.50040000  1.0 -0.6501417625
O  O20  1  0.02790000  0.84660000  0.49960000  1.0 -0.6501417625
O  O21  1  0.52790000  0.15340000  0.49960000  1.0 -0.6501417625
O  O22  1  0.97210000  0.15340000  0.50040000  1.0 -0.6501417625
O  O23  1  0.32010000  0.21510000  0.62750000  1.0 -0.4026714209
O  O24  1  0.17990000  0.21510000  0.37250000  1.0 -0.4090195093
O  O25  1  0.67990000  0.78490000  0.37250000  1.0 -0.4090195093
O  O26  1  0.82010000  0.78490000  0.62750000  1.0 -0.4026714209
