# DDEC6 charges by PACMAN v1.1 (https://github.com/mtap-research/PACMAN-charge/)
data_YAVVEZ_ASR_pacman
_symmetry_space_group_name_H-M   'P 1'
_cell_length_a   13.31110000
_cell_length_b   15.89810000
_cell_length_c   15.53540000
_cell_angle_alpha   90.00000000
_cell_angle_beta   112.59200000
_cell_angle_gamma   90.00000000
_symmetry_Int_Tables_number   1
_chemical_formula_structural   Sm2H12C31N5O13
_chemical_formula_sum   'Sm4 H24 C62 N10 O26'
_cell_volume   3035.34072626
_cell_formula_units_Z   2
loop_
 _symmetry_equiv_pos_site_id
 _symmetry_equiv_pos_as_xyz
  1  'x, y, z'
loop_
 _atom_site_type_symbol
 _atom_site_label
 _atom_site_symmetry_multiplicity
 _atom_site_fract_x
 _atom_site_fract_y
 _atom_site_fract_z
 _atom_site_occupancy
 _atom_site_charge
Sm  Sm1  1  0.40742000  0.04280000  0.57291000  1.0 2.1350142613
Sm  Sm2  1  0.09258000  0.04280000  0.42709000  1.0 2.1337327614
Sm  Sm3  1  0.59258000  0.95720000  0.42709000  1.0 2.1350142613
Sm  Sm4  1  0.90742000  0.95720000  0.57291000  1.0 2.1350142613
H  H1  1  0.13970000  0.97580000  0.78370000  1.0 0.1412072416
H  H2  1  0.36030000  0.97580000  0.21630000  1.0 0.1412072416
H  H3  1  0.86030000  0.02420000  0.21630000  1.0 0.1412072416
H  H4  1  0.63970000  0.02420000  0.78370000  1.0 0.1412072416
H  H5  1  0.51210000  0.94850000  0.88340000  1.0 0.1412072416
H  H6  1  0.98790000  0.94850000  0.11660000  1.0 0.1412072416
H  H7  1  0.48790000  0.05150000  0.11660000  1.0 0.1412072416
H  H8  1  0.01210000  0.05150000  0.88340000  1.0 0.1412072416
H  H9  1  0.43060000  0.93500000  0.98700000  1.0 0.122173018
H  H10  1  0.06940000  0.93500000  0.01300000  1.0 0.122173018
H  H11  1  0.56940000  0.06500000  0.01300000  1.0 0.122173018
H  H12  1  0.93060000  0.06500000  0.98700000  1.0 0.122173018
H  H13  1  0.52160000  0.69370000  0.48520000  1.0 0.133634004
H  H14  1  0.97840000  0.69370000  0.51480000  1.0 0.133634004
H  H15  1  0.47840000  0.30630000  0.51480000  1.0 0.133634004
H  H16  1  0.02160000  0.30630000  0.48520000  1.0 0.133634004
H  H17  1  0.38750000  0.52590000  0.59510000  1.0 0.122173018
H  H18  1  0.11250000  0.52590000  0.40490000  1.0 0.122173018
H  H19  1  0.61250000  0.47410000  0.40490000  1.0 0.122173018
H  H20  1  0.88750000  0.47410000  0.59510000  1.0 0.122173018
H  H21  1  0.31070000  0.62980000  0.65190000  1.0 0.1412072416
H  H22  1  0.18930000  0.62980000  0.34810000  1.0 0.1412072416
H  H23  1  0.68930000  0.37020000  0.34810000  1.0 0.1412072416
H  H24  1  0.81070000  0.37020000  0.65190000  1.0 0.1412072416
C  C1  1  0.27500000  0.95530000  0.89500000  1.0 0.1412072416
C  C2  1  0.22500000  0.95530000  0.10500000  1.0 0.1412072416
C  C3  1  0.72500000  0.04470000  0.10500000  1.0 0.1412072416
C  C4  1  0.77500000  0.04470000  0.89500000  1.0 0.1412072416
C  C5  1  0.21480000  0.97090000  0.80320000  1.0 -0.1204353604
C  C6  1  0.28520000  0.97090000  0.19680000  1.0 -0.1204353604
C  C7  1  0.78520000  0.02910000  0.19680000  1.0 -0.1204353604
C  C8  1  0.71480000  0.02910000  0.80320000  1.0 -0.1204353604
C  C9  1  0.37900000  0.97480000  0.76930000  1.0 0.3949148908
C  C10  1  0.12100000  0.97480000  0.23070000  1.0 0.3949148908
C  C11  1  0.62100000  0.02520000  0.23070000  1.0 0.3958033576
C  C12  1  0.87900000  0.02520000  0.76930000  1.0 0.3949148908
C  C13  1  0.43710000  0.95560000  0.86270000  1.0 -0.1812067393
C  C14  1  0.06290000  0.95560000  0.13730000  1.0 -0.1812067393
C  C15  1  0.56290000  0.04440000  0.13730000  1.0 -0.1812067393
C  C16  1  0.93710000  0.04440000  0.86270000  1.0 -0.1812067393
C  C17  1  0.38870000  0.94670000  0.92480000  1.0 -0.112174481
C  C18  1  0.11130000  0.94670000  0.07520000  1.0 -0.112174481
C  C19  1  0.61130000  0.05330000  0.07520000  1.0 -0.112174481
C  C20  1  0.88870000  0.05330000  0.92480000  1.0 -0.112174481
C  C21  1  0.43240000  0.74660000  0.55140000  1.0 -0.112174481
C  C22  1  0.06760000  0.74660000  0.44860000  1.0 -0.112174481
C  C23  1  0.56760000  0.25340000  0.44860000  1.0 -0.112174481
C  C24  1  0.93240000  0.25340000  0.55140000  1.0 -0.112174481
C  C25  1  0.26280000  0.97990000  0.73640000  1.0 -0.1812067393
C  C26  1  0.23720000  0.97990000  0.26360000  1.0 -0.1812067393
C  C27  1  0.73720000  0.02010000  0.26360000  1.0 -0.1812067393
C  C28  1  0.76280000  0.02010000  0.73640000  1.0 -0.1812067393
C  C29  1  0.45940000  0.59920000  0.53130000  1.0 0.1120631203
C  C30  1  0.04060000  0.59920000  0.46870000  1.0 0.1120631203
C  C31  1  0.54060000  0.40080000  0.46870000  1.0 0.1120631203
C  C32  1  0.95940000  0.40080000  0.53130000  1.0 0.1120631203
C  C33  1  0.47780000  0.68080000  0.51770000  1.0 -0.1286541976
C  C34  1  0.02220000  0.68080000  0.48230000  1.0 -0.1286541976
C  C35  1  0.52220000  0.31920000  0.48230000  1.0 -0.1286541976
C  C36  1  0.97780000  0.31920000  0.51770000  1.0 -0.1286541976
C  C37  1  0.19370000  0.99610000  0.64060000  1.0 0.6873533383
C  C38  1  0.30630000  0.99610000  0.35940000  1.0 0.6873533383
C  C39  1  0.80630000  0.00390000  0.35940000  1.0 0.6873533383
C  C40  1  0.69370000  0.00390000  0.64060000  1.0 0.6873533383
C  C41  1  0.45720000  0.83790000  0.53350000  1.0 0.6721371069
C  C42  1  0.04280000  0.83790000  0.46650000  1.0 0.6721371069
C  C43  1  0.54280000  0.16210000  0.46650000  1.0 0.6721371069
C  C44  1  0.95720000  0.16210000  0.53350000  1.0 0.6721371069
C  C45  1  0.39800000  0.58180000  0.58290000  1.0 -0.1204353604
C  C46  1  0.10200000  0.58180000  0.41710000  1.0 -0.1204353604
C  C47  1  0.60200000  0.41820000  0.41710000  1.0 -0.1204353604
C  C48  1  0.89800000  0.41820000  0.58290000  1.0 -0.1204353604
C  C49  1  0.35160000  0.64340000  0.61700000  1.0 -0.1709643424
C  C50  1  0.14840000  0.64340000  0.38300000  1.0 -0.1709643424
C  C51  1  0.64840000  0.35660000  0.38300000  1.0 -0.1709643424
C  C52  1  0.85160000  0.35660000  0.61700000  1.0 -0.1709643424
C  C53  1  0.36710000  0.72670000  0.59810000  1.0 0.2888580814
C  C54  1  0.13290000  0.72670000  0.40190000  1.0 0.2888580814
C  C55  1  0.63290000  0.27330000  0.40190000  1.0 0.2888580814
C  C56  1  0.86710000  0.27330000  0.59810000  1.0 0.2888580814
C  C57  1  0.25000000  0.21600000  0.50000000  1.0 0.2523319379
C  C58  1  0.75000000  0.78400000  0.50000000  1.0 0.2523319379
C  C59  1  0.22700000  0.34000000  0.40500000  1.0 -0.0492156826
C  C60  1  0.27300000  0.34000000  0.59500000  1.0 -0.0492156826
C  C61  1  0.77300000  0.66000000  0.59500000  1.0 -0.0492156826
C  C62  1  0.72700000  0.66000000  0.40500000  1.0 -0.0492156826
N  N1  1  0.50760000  0.53680000  0.49130000  1.0 -0.0880659566
N  N2  1  0.99240000  0.53680000  0.50870000  1.0 -0.0880659566
N  N3  1  0.49240000  0.46320000  0.50870000  1.0 -0.0880659566
N  N4  1  0.00760000  0.46320000  0.49130000  1.0 -0.0880659566
N  N5  1  0.21890000  0.95520000  0.95750000  1.0 -0.1204353604
N  N6  1  0.28110000  0.95520000  0.04250000  1.0 -0.1204353604
N  N7  1  0.78110000  0.04480000  0.04250000  1.0 -0.1204353604
N  N8  1  0.71890000  0.04480000  0.95750000  1.0 -0.1204353604
N  N9  1  0.25000000  0.30800000  0.50000000  1.0 0.0239739801
N  N10  1  0.75000000  0.69200000  0.50000000  1.0 0.0262028623
O  O1  1  0.40500000  0.89130000  0.55480000  1.0 -0.5529350087
O  O2  1  0.09500000  0.89130000  0.44520000  1.0 -0.5529350087
O  O3  1  0.59500000  0.10870000  0.44520000  1.0 -0.5529350087
O  O4  1  0.90500000  0.10870000  0.55480000  1.0 -0.5529350087
O  O5  1  0.32140000  0.78620000  0.63140000  1.0 -0.4258579657
O  O6  1  0.17860000  0.78620000  0.36860000  1.0 -0.4258579657
O  O7  1  0.67860000  0.21380000  0.36860000  1.0 -0.4229609117
O  O8  1  0.82140000  0.21380000  0.63140000  1.0 -0.4229609117
O  O9  1  0.09090000  0.98950000  0.61300000  1.0 -0.7133980736
O  O10  1  0.40910000  0.98950000  0.38700000  1.0 -0.7133980736
O  O11  1  0.90910000  0.01050000  0.38700000  1.0 -0.7133980736
O  O12  1  0.59090000  0.01050000  0.61300000  1.0 -0.7133980736
O  O13  1  0.52850000  0.84950000  0.50020000  1.0 -0.6868764952
O  O14  1  0.97150000  0.84950000  0.49980000  1.0 -0.6868764952
O  O15  1  0.47150000  0.15050000  0.49980000  1.0 -0.6868764952
O  O16  1  0.02850000  0.15050000  0.50020000  1.0 -0.6868764952
O  O17  1  0.25000000  0.15580000  0.50000000  1.0 -0.4981880531
O  O18  1  0.75000000  0.84420000  0.50000000  1.0 -0.4981880531
O  O19  1  0.23410000  0.01540000  0.58170000  1.0 -0.7027916357
O  O20  1  0.26590000  0.01540000  0.41830000  1.0 -0.7027916357
O  O21  1  0.76590000  0.98460000  0.41830000  1.0 -0.7027916357
O  O22  1  0.73410000  0.98460000  0.58170000  1.0 -0.7027916357
O  O23  1  0.43160000  0.98730000  0.71500000  1.0 -0.6572883472
O  O24  1  0.06840000  0.98730000  0.28500000  1.0 -0.6572883472
O  O25  1  0.56840000  0.01270000  0.28500000  1.0 -0.6572883472
O  O26  1  0.93160000  0.01270000  0.71500000  1.0 -0.6572883472
