# DDEC6 charges by PACMAN v1.1 (https://github.com/mtap-research/PACMAN-charge/)
data_YAVWAW_FSR_pacman
_symmetry_space_group_name_H-M   'P 1'
_cell_length_a   8.83040000
_cell_length_b   8.82570000
_cell_length_c   27.64400000
_cell_angle_alpha   90.00000000
_cell_angle_beta   102.14200000
_cell_angle_gamma   90.00000000
_symmetry_Int_Tables_number   1
_chemical_formula_structural   HoH16C17N3O8
_chemical_formula_sum   'Ho4 H64 C68 N12 O32'
_cell_volume   2106.22439228
_cell_formula_units_Z   4
loop_
 _symmetry_equiv_pos_site_id
 _symmetry_equiv_pos_as_xyz
  1  'x, y, z'
loop_
 _atom_site_type_symbol
 _atom_site_label
 _atom_site_symmetry_multiplicity
 _atom_site_fract_x
 _atom_site_fract_y
 _atom_site_fract_z
 _atom_site_occupancy
 _atom_site_charge
Ho  Ho1  1  0.49621000  0.06093000  0.73294000  1.0 2.0876437503
Ho  Ho2  1  0.50379000  0.56093000  0.76706000  1.0 2.0876437503
Ho  Ho3  1  0.50379000  0.93907000  0.26706000  1.0 2.0876437503
Ho  Ho4  1  0.49621000  0.43907000  0.23294000  1.0 2.0876437503
H  H1  1  0.60530000  0.18970000  0.62380000  1.0 0.1039544272
H  H2  1  0.39470000  0.68970000  0.87620000  1.0 0.1039544272
H  H3  1  0.39470000  0.81030000  0.37620000  1.0 0.1039544272
H  H4  1  0.60530000  0.31030000  0.12380000  1.0 0.1039544272
H  H5  1  0.88780000  0.24320000  0.57220000  1.0 0.1301634633
H  H6  1  0.11220000  0.74320000  0.92780000  1.0 0.1400100144
H  H7  1  0.11220000  0.75680000  0.42780000  1.0 0.1400100144
H  H8  1  0.88780000  0.25680000  0.07220000  1.0 0.1301634633
H  H9  1  0.84230000  0.07490000  0.55790000  1.0 0.1301634633
H  H10  1  0.15770000  0.57490000  0.94210000  1.0 0.1301634633
H  H11  1  0.15770000  0.92510000  0.44210000  1.0 0.1301634633
H  H12  1  0.84230000  0.42510000  0.05790000  1.0 0.1301634633
H  H13  1  0.71280000  0.19670000  0.55760000  1.0 0.1301634633
H  H14  1  0.28720000  0.69670000  0.94240000  1.0 0.1301634633
H  H15  1  0.28720000  0.80330000  0.44240000  1.0 0.1301634633
H  H16  1  0.71280000  0.30330000  0.05760000  1.0 0.1301634633
H  H17  1  0.93770000  0.96510000  0.66110000  1.0 0.1301634633
H  H18  1  0.06230000  0.46510000  0.83890000  1.0 0.1301634633
H  H19  1  0.06230000  0.03490000  0.33890000  1.0 0.1301634633
H  H20  1  0.93770000  0.53490000  0.16110000  1.0 0.1301634633
H  H21  1  0.03540000  0.07920000  0.63680000  1.0 0.1400100144
H  H22  1  0.96460000  0.57920000  0.86320000  1.0 0.1400100144
H  H23  1  0.96460000  0.92080000  0.36320000  1.0 0.1400100144
H  H24  1  0.03540000  0.42080000  0.13680000  1.0 0.1400100144
H  H25  1  0.97970000  0.12490000  0.68500000  1.0 0.1400100144
H  H26  1  0.02030000  0.62490000  0.81500000  1.0 0.1400100144
H  H27  1  0.02030000  0.87510000  0.31500000  1.0 0.1400100144
H  H28  1  0.97970000  0.37510000  0.18500000  1.0 0.1400100144
H  H29  1  0.27630000  0.99820000  0.95840000  1.0 0.1301634633
H  H30  1  0.72370000  0.49820000  0.54160000  1.0 0.1301634633
H  H31  1  0.72370000  0.00180000  0.04160000  1.0 0.1301634633
H  H32  1  0.27630000  0.50180000  0.45840000  1.0 0.1301634633
H  H33  1  0.35470000  0.18500000  0.01480000  1.0 0.1198122877
H  H34  1  0.64530000  0.68500000  0.48520000  1.0 0.1198122877
H  H35  1  0.64530000  0.81500000  0.98520000  1.0 0.1198122877
H  H36  1  0.35470000  0.31500000  0.51480000  1.0 0.1198122877
H  H37  1  0.51130000  0.42640000  0.91250000  1.0 0.1198122877
H  H38  1  0.48870000  0.92640000  0.58750000  1.0 0.1198122877
H  H39  1  0.48870000  0.57360000  0.08750000  1.0 0.1198122877
H  H40  1  0.51130000  0.07360000  0.41250000  1.0 0.1198122877
H  H41  1  0.85600000  0.28650000  0.86200000  1.0 0.1400100144
H  H42  1  0.14400000  0.78650000  0.63800000  1.0 0.1400100144
H  H43  1  0.14400000  0.71350000  0.13800000  1.0 0.1400100144
H  H44  1  0.85600000  0.21350000  0.36200000  1.0 0.1400100144
H  H45  1  0.96250000  0.22350000  0.94150000  1.0 0.1132681522
H  H46  1  0.03750000  0.72350000  0.55850000  1.0 0.1132681522
H  H47  1  0.03750000  0.77650000  0.05850000  1.0 0.1132681522
H  H48  1  0.96250000  0.27650000  0.44150000  1.0 0.1132681522
H  H49  1  0.80090000  0.80220000  0.91720000  1.0 0.1198122877
H  H50  1  0.19910000  0.30220000  0.58280000  1.0 0.1198122877
H  H51  1  0.19910000  0.19780000  0.08280000  1.0 0.1198122877
H  H52  1  0.80090000  0.69780000  0.41720000  1.0 0.1198122877
H  H53  1  0.32700000  0.00900000  0.84310000  1.0 0.3425231057
H  H54  1  0.67300000  0.50900000  0.65690000  1.0 0.3425231057
H  H55  1  0.67300000  0.99100000  0.15690000  1.0 0.3425231057
H  H56  1  0.32700000  0.49100000  0.34310000  1.0 0.3425231057
H  H57  1  0.23900000  0.83400000  0.72000000  1.0 0.3087747621
H  H58  1  0.76100000  0.33400000  0.78000000  1.0 0.3087747621
H  H59  1  0.76100000  0.16600000  0.28000000  1.0 0.3087747621
H  H60  1  0.23900000  0.66600000  0.22000000  1.0 0.3087747621
H  H61  1  0.17700000  0.93000000  0.74300000  1.0 0.3087747621
H  H62  1  0.82300000  0.43000000  0.75700000  1.0 0.3087747621
H  H63  1  0.82300000  0.07000000  0.25700000  1.0 0.3087747621
H  H64  1  0.17700000  0.57000000  0.24300000  1.0 0.3087747621
C  C1  1  0.69460000  0.15340000  0.64470000  1.0 0.3087747621
C  C2  1  0.30540000  0.65340000  0.85530000  1.0 0.3087747621
C  C3  1  0.30540000  0.84660000  0.35530000  1.0 0.3087747621
C  C4  1  0.69460000  0.34660000  0.14470000  1.0 0.3087747621
C  C5  1  0.81450000  0.16410000  0.57390000  1.0 -0.3243393373
C  C6  1  0.18550000  0.66410000  0.92610000  1.0 -0.3243393373
C  C7  1  0.18550000  0.83590000  0.42610000  1.0 -0.3243393373
C  C8  1  0.81450000  0.33590000  0.07390000  1.0 -0.3243393373
C  C9  1  0.95310000  0.07000000  0.65440000  1.0 -0.2960471433
C  C10  1  0.04690000  0.57000000  0.84560000  1.0 -0.2960471433
C  C11  1  0.04690000  0.93000000  0.34560000  1.0 -0.2960471433
C  C12  1  0.95310000  0.43000000  0.15440000  1.0 -0.2960471433
C  C13  1  0.44070000  0.24690000  0.83560000  1.0 0.649264105
C  C14  1  0.55930000  0.74690000  0.66440000  1.0 0.649264105
C  C15  1  0.55930000  0.75310000  0.16440000  1.0 0.649264105
C  C16  1  0.44070000  0.25310000  0.33560000  1.0 0.649264105
C  C17  1  0.41590000  0.22640000  0.88700000  1.0 -0.16146482
C  C18  1  0.58410000  0.72640000  0.61300000  1.0 -0.16146482
C  C19  1  0.58410000  0.77360000  0.11300000  1.0 -0.16146482
C  C20  1  0.41590000  0.27360000  0.38700000  1.0 -0.16146482
C  C21  1  0.34530000  0.09670000  0.90100000  1.0 0.2759912837
C  C22  1  0.65470000  0.59670000  0.59900000  1.0 0.2759912837
C  C23  1  0.65470000  0.90330000  0.09900000  1.0 0.2759912837
C  C24  1  0.34530000  0.40330000  0.40100000  1.0 0.2759912837
C  C25  1  0.32330000  0.08450000  0.94900000  1.0 -0.2114298936
C  C26  1  0.67670000  0.58450000  0.55100000  1.0 -0.2114298936
C  C27  1  0.67670000  0.91550000  0.05100000  1.0 -0.2114298936
C  C28  1  0.32330000  0.41550000  0.44900000  1.0 -0.2114298936
C  C29  1  0.36920000  0.19640000  0.98260000  1.0 -0.1255009618
C  C30  1  0.63080000  0.69640000  0.51740000  1.0 -0.1255009618
C  C31  1  0.63080000  0.80360000  0.01740000  1.0 -0.1255009618
C  C32  1  0.36920000  0.30360000  0.48260000  1.0 -0.1255009618
C  C33  1  0.43760000  0.32780000  0.96940000  1.0 0.1301634633
C  C34  1  0.56240000  0.82780000  0.53060000  1.0 0.1301634633
C  C35  1  0.56240000  0.67220000  0.03060000  1.0 0.1301634633
C  C36  1  0.43760000  0.17220000  0.46940000  1.0 0.1301634633
C  C37  1  0.46270000  0.34050000  0.92140000  1.0 -0.1424638403
C  C38  1  0.53730000  0.84050000  0.57860000  1.0 -0.1424638403
C  C39  1  0.53730000  0.65950000  0.07860000  1.0 -0.1424638403
C  C40  1  0.46270000  0.15950000  0.42140000  1.0 -0.1424638403
C  C41  1  0.65900000  0.81210000  0.82570000  1.0 0.6130175519
C  C42  1  0.34100000  0.31210000  0.67430000  1.0 0.6130175519
C  C43  1  0.34100000  0.18790000  0.17430000  1.0 0.6130175519
C  C44  1  0.65900000  0.68790000  0.32570000  1.0 0.6130175519
C  C45  1  0.74500000  0.93350000  0.85640000  1.0 -0.16146482
C  C46  1  0.25500000  0.43350000  0.64360000  1.0 -0.16146482
C  C47  1  0.25500000  0.06650000  0.14360000  1.0 -0.16146482
C  C48  1  0.74500000  0.56650000  0.35640000  1.0 -0.16146482
C  C49  1  0.76460000  0.08170000  0.83790000  1.0 0.352516033
C  C50  1  0.23540000  0.58170000  0.66210000  1.0 0.352516033
C  C51  1  0.23540000  0.91830000  0.16210000  1.0 0.352516033
C  C52  1  0.76460000  0.41830000  0.33790000  1.0 0.352516033
C  C53  1  0.84570000  0.18750000  0.87250000  1.0 -0.2114298936
C  C54  1  0.15430000  0.68750000  0.62750000  1.0 -0.2114298936
C  C55  1  0.15430000  0.81250000  0.12750000  1.0 -0.2114298936
C  C56  1  0.84570000  0.31250000  0.37250000  1.0 -0.2114298936
C  C57  1  0.90910000  0.15050000  0.92020000  1.0 -0.1200339512
C  C58  1  0.09090000  0.65050000  0.57980000  1.0 -0.1200339512
C  C59  1  0.09090000  0.84950000  0.07980000  1.0 -0.1200339512
C  C60  1  0.90910000  0.34950000  0.42020000  1.0 -0.1200339512
C  C61  1  0.89450000  0.00360000  0.93750000  1.0 0.1198122877
C  C62  1  0.10550000  0.50360000  0.56250000  1.0 0.1198122877
C  C63  1  0.10550000  0.99640000  0.06250000  1.0 0.1198122877
C  C64  1  0.89450000  0.49640000  0.43750000  1.0 0.1198122877
C  C65  1  0.81240000  0.89950000  0.90560000  1.0 -0.16146482
C  C66  1  0.18760000  0.39950000  0.59440000  1.0 -0.16146482
C  C67  1  0.18760000  0.10050000  0.09440000  1.0 -0.16146482
C  C68  1  0.81240000  0.60050000  0.40560000  1.0 -0.16146482
N  N1  1  0.47580000  0.44010000  0.00680000  1.0 -0.1200339512
N  N2  1  0.52420000  0.94010000  0.49320000  1.0 -0.1200339512
N  N3  1  0.52420000  0.55990000  0.99320000  1.0 -0.1200339512
N  N4  1  0.47580000  0.05990000  0.50680000  1.0 -0.1200339512
N  N5  1  0.96260000  0.95200000  0.98590000  1.0 -0.1200339512
N  N6  1  0.03740000  0.45200000  0.51410000  1.0 -0.1200339512
N  N7  1  0.03740000  0.04800000  0.01410000  1.0 -0.1200339512
N  N8  1  0.96260000  0.54800000  0.48590000  1.0 -0.1200339512
N  N9  1  0.81530000  0.13020000  0.62530000  1.0 0.0316266756
N  N10  1  0.18470000  0.63020000  0.87470000  1.0 0.0316266756
N  N11  1  0.18470000  0.86980000  0.37470000  1.0 0.0316266756
N  N12  1  0.81530000  0.36980000  0.12530000  1.0 0.0316266756
O  O1  1  0.68960000  0.13140000  0.68780000  1.0 -0.5155079883
O  O2  1  0.31040000  0.63140000  0.81220000  1.0 -0.5155079883
O  O3  1  0.31040000  0.86860000  0.31220000  1.0 -0.5155079883
O  O4  1  0.68960000  0.36860000  0.18780000  1.0 -0.5155079883
O  O5  1  0.50170000  0.36550000  0.82486000  1.0 -0.6399823052
O  O6  1  0.49830000  0.86550000  0.67514000  1.0 -0.6399823052
O  O7  1  0.49830000  0.63450000  0.17514000  1.0 -0.6399823052
O  O8  1  0.50170000  0.13450000  0.32486000  1.0 -0.6399823052
O  O9  1  0.66620000  0.67950000  0.84124000  1.0 -0.6125708741
O  O10  1  0.33380000  0.17950000  0.65876000  1.0 -0.6125708741
O  O11  1  0.33380000  0.32050000  0.15876000  1.0 -0.6125708741
O  O12  1  0.66620000  0.82050000  0.34124000  1.0 -0.6125708741
O  O13  1  0.25480000  0.92450000  0.73020000  1.0 -0.7468280715
O  O14  1  0.74520000  0.42450000  0.76980000  1.0 -0.7468280715
O  O15  1  0.74520000  0.07550000  0.26980000  1.0 -0.7468280715
O  O16  1  0.25480000  0.57550000  0.23020000  1.0 -0.7468280715
O  O17  1  0.39990000  0.13670000  0.80519000  1.0 -0.6755173129
O  O18  1  0.60010000  0.63670000  0.69481000  1.0 -0.6755173129
O  O19  1  0.60010000  0.86330000  0.19481000  1.0 -0.6755173129
O  O20  1  0.39990000  0.36330000  0.30519000  1.0 -0.6755173129
O  O21  1  0.29670000  0.98310000  0.86900000  1.0 -0.4387413559
O  O22  1  0.70330000  0.48310000  0.63100000  1.0 -0.4387413559
O  O23  1  0.70330000  0.01690000  0.13100000  1.0 -0.4387413559
O  O24  1  0.29670000  0.51690000  0.36900000  1.0 -0.4387413559
O  O25  1  0.71790000  0.12130000  0.79128000  1.0 -0.6533230614
O  O26  1  0.28210000  0.62130000  0.70872000  1.0 -0.6533230614
O  O27  1  0.28210000  0.87870000  0.20872000  1.0 -0.6533230614
O  O28  1  0.71790000  0.37870000  0.29128000  1.0 -0.6533230614
O  O29  1  0.57520000  0.84050000  0.78262000  1.0 -0.7431342673
O  O30  1  0.42480000  0.34050000  0.71738000  1.0 -0.7431342673
O  O31  1  0.42480000  0.15950000  0.21738000  1.0 -0.7431342673
O  O32  1  0.57520000  0.65950000  0.28262000  1.0 -0.7431342673
