# DDEC6 charges by PACMAN v1.1 (https://github.com/mtap-research/PACMAN-charge/)
data_YAWBAC_ASR_pacman
_symmetry_space_group_name_H-M   'P 1'
_cell_length_a   16.81890000
_cell_length_b   16.81890000
_cell_length_c   16.81890000
_cell_angle_alpha   68.09140000
_cell_angle_beta   68.09140000
_cell_angle_gamma   68.09140000
_symmetry_Int_Tables_number   1
_chemical_formula_structural   ZnH7C16O5
_chemical_formula_sum   'Zn6 H42 C96 O30'
_cell_volume   3941.17770123
_cell_formula_units_Z   6
loop_
 _symmetry_equiv_pos_site_id
 _symmetry_equiv_pos_as_xyz
  1  'x, y, z'
loop_
 _atom_site_type_symbol
 _atom_site_label
 _atom_site_symmetry_multiplicity
 _atom_site_fract_x
 _atom_site_fract_y
 _atom_site_fract_z
 _atom_site_occupancy
 _atom_site_charge
Zn  Zn1  1  0.80722000  0.80690000  0.38408000  1.0 0.953208972
Zn  Zn2  1  0.80690000  0.38408000  0.80722000  1.0 0.953208972
Zn  Zn3  1  0.38408000  0.80722000  0.80690000  1.0 0.953208972
Zn  Zn4  1  0.79445000  0.79447000  0.21701000  1.0 0.9741621305
Zn  Zn5  1  0.79447000  0.21701000  0.79445000  1.0 0.9755301167
Zn  Zn6  1  0.21701000  0.79445000  0.79447000  1.0 0.9741621305
H  H1  1  0.78390000  0.06730000  0.06870000  1.0 0.140193968
H  H2  1  0.06730000  0.06870000  0.78390000  1.0 0.140193968
H  H3  1  0.06870000  0.78390000  0.06730000  1.0 0.140193968
H  H4  1  0.78880000  0.29990000  0.08500000  1.0 0.1310836344
H  H5  1  0.29990000  0.08500000  0.78880000  1.0 0.1310836344
H  H6  1  0.08500000  0.78880000  0.29990000  1.0 0.1310836344
H  H7  1  0.78300000  0.08670000  0.30220000  1.0 0.140193968
H  H8  1  0.08670000  0.30220000  0.78300000  1.0 0.140193968
H  H9  1  0.30220000  0.78300000  0.08670000  1.0 0.140193968
H  H10  1  0.89230000  0.38250000  0.24570000  1.0 0.1090446663
H  H11  1  0.38250000  0.24570000  0.89230000  1.0 0.1090446663
H  H12  1  0.24570000  0.89230000  0.38250000  1.0 0.1090446663
H  H13  1  0.67080000  0.23300000  0.36260000  1.0 0.1475807508
H  H14  1  0.23300000  0.36260000  0.67080000  1.0 0.1475807508
H  H15  1  0.36260000  0.67080000  0.23300000  1.0 0.1475807508
H  H16  1  0.54060000  0.34980000  0.54760000  1.0 0.0919318841
H  H17  1  0.34980000  0.54760000  0.54060000  1.0 0.0919318841
H  H18  1  0.54760000  0.54060000  0.34980000  1.0 0.0919318841
H  H19  1  0.60510000  0.40480000  0.53880000  1.0 0.1090446663
H  H20  1  0.40480000  0.53880000  0.60510000  1.0 0.1090446663
H  H21  1  0.53880000  0.60510000  0.40480000  1.0 0.1090446663
H  H22  1  0.67930000  0.25430000  0.62980000  1.0 0.1310836344
H  H23  1  0.25430000  0.62980000  0.67930000  1.0 0.1310836344
H  H24  1  0.62980000  0.67930000  0.25430000  1.0 0.1310836344
H  H25  1  0.93620000  0.44470000  0.09100000  1.0 0.0971575568
H  H26  1  0.44470000  0.09100000  0.93620000  1.0 0.0919318841
H  H27  1  0.09100000  0.93620000  0.44470000  1.0 0.0971575568
H  H28  1  0.98980000  0.35210000  0.14590000  1.0 0.0791768968
H  H29  1  0.35210000  0.14590000  0.98980000  1.0 0.0791768968
H  H30  1  0.14590000  0.98980000  0.35210000  1.0 0.0791768968
H  H31  1  0.03440000  0.29280000  0.02260000  1.0 0.1310836344
H  H32  1  0.29280000  0.02260000  0.03440000  1.0 0.1310836344
H  H33  1  0.02260000  0.03440000  0.29280000  1.0 0.1310836344
H  H34  1  0.81200000  0.51970000  0.30250000  1.0 0.1310836344
H  H35  1  0.51970000  0.30250000  0.81200000  1.0 0.1310836344
H  H36  1  0.30250000  0.81200000  0.51970000  1.0 0.1310836344
H  H37  1  0.83650000  0.52880000  0.52960000  1.0 0.1310836344
H  H38  1  0.52880000  0.52960000  0.83650000  1.0 0.1310836344
H  H39  1  0.52960000  0.83650000  0.52880000  1.0 0.1310836344
H  H40  1  0.81960000  0.30110000  0.51410000  1.0 0.1310836344
H  H41  1  0.30110000  0.51410000  0.81960000  1.0 0.1310836344
H  H42  1  0.51410000  0.81960000  0.30110000  1.0 0.1310836344
C  C1  1  0.78110000  0.96920000  0.23620000  1.0 0.600783963
C  C2  1  0.96920000  0.23620000  0.78110000  1.0 0.600783963
C  C3  1  0.23620000  0.78110000  0.96920000  1.0 0.600783963
C  C4  1  0.78315000  0.06305000  0.19175000  1.0 -0.0427965992
C  C5  1  0.06305000  0.19175000  0.78315000  1.0 -0.0427965992
C  C6  1  0.19175000  0.78315000  0.06305000  1.0 -0.0427965992
C  C7  1  0.78443000  0.10143000  0.10253000  1.0 -0.1038954641
C  C8  1  0.10143000  0.10253000  0.78443000  1.0 -0.1038954641
C  C9  1  0.10253000  0.78443000  0.10143000  1.0 -0.1038954641
C  C10  1  0.78650000  0.18970000  0.06280000  1.0 -0.0081580714
C  C11  1  0.18970000  0.06280000  0.78650000  1.0 -0.0081580714
C  C12  1  0.06280000  0.78650000  0.18970000  1.0 -0.0081580714
C  C13  1  0.78730000  0.23950000  0.11210000  1.0 -0.1320847022
C  C14  1  0.23950000  0.11210000  0.78730000  1.0 -0.1320847022
C  C15  1  0.11210000  0.78730000  0.23950000  1.0 -0.1320847022
C  C16  1  0.78606000  0.20116000  0.20136000  1.0 0.0726359179
C  C17  1  0.20116000  0.20136000  0.78606000  1.0 0.0726359179
C  C18  1  0.20136000  0.78606000  0.20116000  1.0 0.0726359179
C  C19  1  0.78392000  0.11292000  0.24122000  1.0 -0.1242697746
C  C20  1  0.11292000  0.24122000  0.78392000  1.0 -0.1242697746
C  C21  1  0.24122000  0.78392000  0.11292000  1.0 -0.1242697746
C  C22  1  0.78710000  0.24080000  0.96430000  1.0 0.600783963
C  C23  1  0.24080000  0.96430000  0.78710000  1.0 0.600783963
C  C24  1  0.96430000  0.78710000  0.24080000  1.0 0.600783963
C  C25  1  0.77240000  0.26390000  0.25380000  1.0 -0.0033866275
C  C26  1  0.26390000  0.25380000  0.77240000  1.0 -0.0033866275
C  C27  1  0.25380000  0.77240000  0.26390000  1.0 -0.0033866275
C  C28  1  0.83830000  0.30830000  0.21910000  1.0 0.1760596176
C  C29  1  0.30830000  0.21910000  0.83830000  1.0 0.1760596176
C  C30  1  0.21910000  0.83830000  0.30830000  1.0 0.1760596176
C  C31  1  0.84740000  0.35210000  0.26940000  1.0 -0.2130179316
C  C32  1  0.35210000  0.26940000  0.84740000  1.0 -0.2130179316
C  C33  1  0.26940000  0.84740000  0.35210000  1.0 -0.2130179316
C  C34  1  0.79070000  0.35160000  0.35450000  1.0 -0.0485843892
C  C35  1  0.35160000  0.35450000  0.79070000  1.0 -0.0485843892
C  C36  1  0.35450000  0.79070000  0.35160000  1.0 -0.0485843892
C  C37  1  0.72500000  0.30710000  0.38910000  1.0 0.2097055455
C  C38  1  0.30710000  0.38910000  0.72500000  1.0 0.2097055455
C  C39  1  0.38910000  0.72500000  0.30710000  1.0 0.2097055455
C  C40  1  0.71580000  0.26330000  0.33890000  1.0 -0.2368482759
C  C41  1  0.26330000  0.33890000  0.71580000  1.0 -0.2368482759
C  C42  1  0.33890000  0.71580000  0.26330000  1.0 -0.2368482759
C  C43  1  0.60050000  0.34440000  0.54950000  1.0 -0.0609146335
C  C44  1  0.34440000  0.54950000  0.60050000  1.0 -0.0609146335
C  C45  1  0.54950000  0.60050000  0.34440000  1.0 -0.0609146335
C  C46  1  0.61510000  0.28750000  0.63650000  1.0 -0.0809987694
C  C47  1  0.28750000  0.63650000  0.61510000  1.0 -0.0809987694
C  C48  1  0.63650000  0.61510000  0.28750000  1.0 -0.0809987694
C  C49  1  0.55640000  0.22170000  0.68000000  1.0 0.0192472475
C  C50  1  0.22170000  0.68000000  0.55640000  1.0 0.0192472475
C  C51  1  0.68000000  0.55640000  0.22170000  1.0 0.0192472475
C  C52  1  0.58350000  0.34540000  0.70260000  1.0 0.1475807508
C  C53  1  0.34540000  0.70260000  0.58350000  1.0 0.1475807508
C  C54  1  0.70260000  0.58350000  0.34540000  1.0 0.1205193192
C  C55  1  0.45710000  0.29440000  0.69700000  1.0 -0.1320847022
C  C56  1  0.29440000  0.69700000  0.45710000  1.0 -0.14915453
C  C57  1  0.69700000  0.45710000  0.29440000  1.0 -0.14915453
C  C58  1  0.95800000  0.37950000  0.09900000  1.0 -0.0485843892
C  C59  1  0.37950000  0.09900000  0.95800000  1.0 -0.0485843892
C  C60  1  0.09900000  0.95800000  0.37950000  1.0 -0.0485843892
C  C61  1  0.01850000  0.35850000  0.01270000  1.0 -0.0609146335
C  C62  1  0.35850000  0.01270000  0.01850000  1.0 -0.0609146335
C  C63  1  0.01270000  0.01850000  0.35850000  1.0 -0.0609146335
C  C64  1  0.10490000  0.38720000  0.96840000  1.0 0.0395411318
C  C65  1  0.38720000  0.96840000  0.10490000  1.0 0.0395411318
C  C66  1  0.96840000  0.10490000  0.38720000  1.0 0.0395411318
C  C67  1  0.96090000  0.40280000  0.94890000  1.0 0.1205193192
C  C68  1  0.40280000  0.94890000  0.96090000  1.0 0.0971575568
C  C69  1  0.94890000  0.96090000  0.40280000  1.0 0.1205193192
C  C70  1  0.08640000  0.46020000  0.86830000  1.0 -0.316730083
C  C71  1  0.46020000  0.86830000  0.08640000  1.0 -0.2952164422
C  C72  1  0.86830000  0.08640000  0.46020000  1.0 -0.3140526424
C  C73  1  0.82490000  0.37250000  0.63030000  1.0 0.5715149134
C  C74  1  0.37250000  0.63030000  0.82490000  1.0 0.5715149134
C  C75  1  0.63030000  0.82490000  0.37250000  1.0 0.5715149134
C  C76  1  0.81730000  0.63280000  0.37370000  1.0 0.5855462839
C  C77  1  0.63280000  0.37370000  0.81730000  1.0 0.5841588666
C  C78  1  0.37370000  0.81730000  0.63280000  1.0 0.5841588666
C  C79  1  0.81437000  0.40307000  0.40077000  1.0 0.1205193192
C  C80  1  0.40307000  0.40077000  0.81437000  1.0 0.1205193192
C  C81  1  0.40077000  0.81437000  0.40307000  1.0 0.1205193192
C  C82  1  0.81631000  0.49141000  0.36191000  1.0 -0.1620354514
C  C83  1  0.49141000  0.36191000  0.81631000  1.0 -0.1620354514
C  C84  1  0.36191000  0.81631000  0.49141000  1.0 -0.1620354514
C  C85  1  0.82440000  0.53820000  0.40990000  1.0 -0.0485843892
C  C86  1  0.53820000  0.40990000  0.82440000  1.0 -0.0485843892
C  C87  1  0.40990000  0.82440000  0.53820000  1.0 -0.0485843892
C  C88  1  0.83080000  0.49680000  0.49680000  1.0 -0.0809987694
C  C89  1  0.49680000  0.49680000  0.83080000  1.0 -0.0809987694
C  C90  1  0.49680000  0.83080000  0.49680000  1.0 -0.0809987694
C  C91  1  0.82900000  0.40830000  0.53550000  1.0 -0.0485843892
C  C92  1  0.40830000  0.53550000  0.82900000  1.0 -0.0485843892
C  C93  1  0.53550000  0.82900000  0.40830000  1.0 -0.0485843892
C  C94  1  0.82080000  0.36150000  0.48760000  1.0 -0.14915453
C  C95  1  0.36150000  0.48760000  0.82080000  1.0 -0.14915453
C  C96  1  0.48760000  0.82080000  0.36150000  1.0 -0.14915453
O  O1  1  0.77450000  0.93120000  0.18900000  1.0 -0.5314979861
O  O2  1  0.93120000  0.18900000  0.77450000  1.0 -0.5314979861
O  O3  1  0.18900000  0.77450000  0.93120000  1.0 -0.5314979861
O  O4  1  0.78020000  0.93640000  0.31550000  1.0 -0.5390747696
O  O5  1  0.93640000  0.31550000  0.78020000  1.0 -0.5390747696
O  O6  1  0.31550000  0.78020000  0.93640000  1.0 -0.5390747696
O  O7  1  0.78060000  0.18410000  0.92310000  1.0 -0.6460727761
O  O8  1  0.18410000  0.92310000  0.78060000  1.0 -0.644420893
O  O9  1  0.92310000  0.78060000  0.18410000  1.0 -0.644420893
O  O10  1  0.78280000  0.32320000  0.93090000  1.0 -0.5471840809
O  O11  1  0.32320000  0.93090000  0.78280000  1.0 -0.5471840809
O  O12  1  0.93090000  0.78280000  0.32320000  1.0 -0.5471840809
O  O13  1  0.67140000  0.30080000  0.47990000  1.0 -0.2294750869
O  O14  1  0.30080000  0.47990000  0.67140000  1.0 -0.2294750869
O  O15  1  0.47990000  0.67140000  0.30080000  1.0 -0.2294750869
O  O16  1  0.88370000  0.34140000  0.12290000  1.0 -0.2294750869
O  O17  1  0.34140000  0.12290000  0.88370000  1.0 -0.2294750869
O  O18  1  0.12290000  0.88370000  0.34140000  1.0 -0.2294750869
O  O19  1  0.81501000  0.29161000  0.66621000  1.0 -0.5600868374
O  O20  1  0.29161000  0.66621000  0.81501000  1.0 -0.5600868374
O  O21  1  0.66621000  0.81501000  0.29161000  1.0 -0.5600868374
O  O22  1  0.82500000  0.41470000  0.66930000  1.0 -0.4258231829
O  O23  1  0.41470000  0.66930000  0.82500000  1.0 -0.4238459478
O  O24  1  0.66930000  0.82500000  0.41470000  1.0 -0.4258231829
O  O25  1  0.82240000  0.67390000  0.41840000  1.0 -0.5216696571
O  O26  1  0.67390000  0.41840000  0.82240000  1.0 -0.5216696571
O  O27  1  0.41840000  0.82240000  0.67390000  1.0 -0.5216696571
O  O28  1  0.81150000  0.66700000  0.29160000  1.0 -0.5390747696
O  O29  1  0.66700000  0.29160000  0.81150000  1.0 -0.5390747696
O  O30  1  0.29160000  0.81150000  0.66700000  1.0 -0.5390747696
