# DDEC6 charges by PACMAN v1.1 (https://github.com/mtap-research/PACMAN-charge/)
data_YAWDEJ_FSR_pacman
_chemical_formula_sum              "Hf12 O60 N12 C36"
_cell_length_a       21.271
_cell_length_b       14.5326
_cell_length_c       8.0868
_cell_angle_alpha    90
_cell_angle_beta     84.193
_cell_angle_gamma    90

_symmetry_space_group_name_H-M    "P 1"
_symmetry_Int_Tables_number       1

loop_
  _symmetry_equiv_pos_as_xyz
  'x, y, z'

loop_
  _atom_site_type_symbol
  _atom_site_label
  _atom_site_symmetry_multiplicity
  _atom_site_fract_x
  _atom_site_fract_y
  _atom_site_fract_z
  _atom_site_occupancy
 _atom_site_charge
Hf  Hf1       1.0  0.57893  0.61340  0.04410  1.0000 1.7486084766
O   O1        1.0  0.51830  0.62900  0.83800  1.0000 -0.7768916559
O   O2        1.0  0.55100  0.75500  0.99900  1.0000 -0.5300176638
N   N1        1.0  0.55500  0.95200  0.03300  1.0000 0.1257545355
O   O3        1.0  0.61010  0.59100  0.60900  1.0000 -0.5300176638
O   O4        1.0  0.65200  0.64000  0.82900  1.0000 -0.5300176638
C   C1        1.0  0.65200  0.64100  0.67100  1.0000 0.6776737007
C   C2        1.0  0.70300  0.69700  0.58200  1.0000 -0.0585115638
C   C3        1.0  0.74600  0.73800  0.66900  1.0000 0.1692388209
N   N2        1.0  0.79300  0.79400  0.59000  1.0000 -0.0764635575
O   O5        1.0  0.67300  0.57900  0.11600  1.0000 0.0175059068
O   O6        1.0  0.60690  0.70500  0.24200  1.0000 -0.3282327053
C   C4        1.0  0.44500  0.95200  0.96700  1.0000 -0.1431822327
Hf  Hf2       1.0  0.07893  0.11340  0.04410  1.0000 1.7486084766
O   O7        1.0  0.01830  0.12900  0.83800  1.0000 -0.7768916559
O   O8        1.0  0.05100  0.25500  0.99900  1.0000 -0.5217280104
N   N3        1.0  0.05500  0.45200  0.03300  1.0000 0.1257545355
O   O9        1.0  0.11010  0.09100  0.60900  1.0000 -0.5300176638
O   O10       1.0  0.15200  0.14000  0.82900  1.0000 -0.5217280104
C   C5        1.0  0.15200  0.14100  0.67100  1.0000 0.6694955467
C   C6        1.0  0.20300  0.19700  0.58200  1.0000 -0.0546596867
C   C7        1.0  0.24600  0.23800  0.66900  1.0000 0.1692388209
N   N4        1.0  0.29300  0.29400  0.59000  1.0000 -0.0764635575
O   O11       1.0  0.17300  0.07900  0.11600  1.0000 0.0101786333
O   O12       1.0  0.10690  0.20500  0.24200  1.0000 -0.3282327053
C   C8        1.0  0.94500  0.45200  0.96700  1.0000 -0.1455677
Hf  Hf3       1.0  0.42107  0.61340  0.95590  1.0000 1.7486084766
O   O13       1.0  0.48170  0.62900  0.16200  1.0000 -0.7768916559
O   O14       1.0  0.44900  0.75500  0.00100  1.0000 -0.5117365821
O   O15       1.0  0.38990  0.59100  0.39100  1.0000 -0.5300176638
O   O16       1.0  0.34800  0.64000  0.17100  1.0000 -0.5217280104
C   C9        1.0  0.34800  0.64100  0.32900  1.0000 0.6694955467
C   C10       1.0  0.29700  0.69700  0.41800  1.0000 -0.0585115638
C   C11       1.0  0.25400  0.73800  0.33100  1.0000 0.1692388209
N   N5        1.0  0.20700  0.79400  0.41000  1.0000 -0.0764635575
O   O17       1.0  0.32700  0.57900  0.88400  1.0000 -0.0386353394
O   O18       1.0  0.39310  0.70500  0.75800  1.0000 -0.2986202684
Hf  Hf4       1.0  0.92107  0.11340  0.95590  1.0000 1.7486084766
O   O19       1.0  0.98170  0.12900  0.16200  1.0000 -0.7768916559
O   O20       1.0  0.94900  0.25500  0.00100  1.0000 -0.5117365821
O   O21       1.0  0.88990  0.09100  0.39100  1.0000 -0.5300176638
O   O22       1.0  0.84800  0.14000  0.17100  1.0000 -0.5217280104
C   C12       1.0  0.84800  0.14100  0.32900  1.0000 0.6694955467
C   C13       1.0  0.79700  0.19700  0.41800  1.0000 -0.0546596867
C   C14       1.0  0.75400  0.23800  0.33100  1.0000 0.1692388209
N   N6        1.0  0.70700  0.29400  0.41000  1.0000 -0.0749315691
O   O23       1.0  0.82700  0.07900  0.88400  1.0000 -0.0076315909
O   O24       1.0  0.89310  0.20500  0.75800  1.0000 -0.3106025902
Hf  Hf5       1.0  0.42107  0.38660  0.95590  1.0000 1.7486084766
O   O25       1.0  0.48170  0.37100  0.16200  1.0000 -0.7768916559
O   O26       1.0  0.44900  0.24500  0.00100  1.0000 -0.5217280104
N   N7        1.0  0.44500  0.04800  0.96700  1.0000 0.1241439137
O   O27       1.0  0.38990  0.40900  0.39100  1.0000 -0.5300176638
O   O28       1.0  0.34800  0.36000  0.17100  1.0000 -0.5300176638
C   C15       1.0  0.34800  0.35900  0.32900  1.0000 0.6694955467
C   C16       1.0  0.29700  0.30300  0.41800  1.0000 -0.0546596867
C   C17       1.0  0.25400  0.26200  0.33100  1.0000 0.1692388209
N   N8        1.0  0.20700  0.20600  0.41000  1.0000 -0.0764635575
O   O29       1.0  0.32700  0.42100  0.88400  1.0000 -0.0278501806
O   O30       1.0  0.39310  0.29500  0.75800  1.0000 -0.3208446649
C   C18       1.0  0.55500  0.04800  0.03300  1.0000 -0.1431822327
Hf  Hf6       1.0  0.92107  0.88660  0.95590  1.0000 1.7486084766
O   O31       1.0  0.98170  0.87100  0.16200  1.0000 -0.7768916559
O   O32       1.0  0.94900  0.74500  0.00100  1.0000 -0.5217280104
N   N9        1.0  0.94500  0.54800  0.96700  1.0000 0.1241439137
O   O33       1.0  0.88990  0.90900  0.39100  1.0000 -0.5300176638
O   O34       1.0  0.84800  0.86000  0.17100  1.0000 -0.5217280104
C   C19       1.0  0.84800  0.85900  0.32900  1.0000 0.6694955467
C   C20       1.0  0.79700  0.80300  0.41800  1.0000 -0.0585115638
C   C21       1.0  0.75400  0.76200  0.33100  1.0000 0.1692388209
N   N10       1.0  0.70700  0.70600  0.41000  1.0000 -0.0764635575
O   O35       1.0  0.82700  0.92100  0.88400  1.0000 -0.0386353394
O   O36       1.0  0.89310  0.79500  0.75800  1.0000 -0.3106025902
C   C22       1.0  0.05500  0.54800  0.03300  1.0000 -0.1431822327
Hf  Hf7       1.0  0.57893  0.38660  0.04410  1.0000 1.7486084766
O   O37       1.0  0.51830  0.37100  0.83800  1.0000 -0.7768916559
O   O38       1.0  0.55100  0.24500  0.99900  1.0000 -0.5217280104
O   O39       1.0  0.61010  0.40900  0.60900  1.0000 -0.5300176638
O   O40       1.0  0.65200  0.36000  0.82900  1.0000 -0.5300176638
C   C23       1.0  0.65200  0.35900  0.67100  1.0000 0.6694955467
C   C24       1.0  0.70300  0.30300  0.58200  1.0000 -0.0585115638
C   C25       1.0  0.74600  0.26200  0.66900  1.0000 0.1692388209
N   N11       1.0  0.79300  0.20600  0.59000  1.0000 -0.0764635575
O   O41       1.0  0.67300  0.42100  0.11600  1.0000 -0.0764635575
O   O42       1.0  0.60690  0.29500  0.24200  1.0000 -0.2910391537
Hf  Hf8       1.0  0.07893  0.88660  0.04410  1.0000 1.7447196993
O   O43       1.0  0.01830  0.87100  0.83800  1.0000 -0.7768916559
O   O44       1.0  0.05100  0.74500  0.99900  1.0000 -0.5117365821
O   O45       1.0  0.11010  0.90900  0.60900  1.0000 -0.5300176638
O   O46       1.0  0.15200  0.86000  0.82900  1.0000 -0.5217280104
C   C26       1.0  0.15200  0.85900  0.67100  1.0000 0.6694955467
C   C27       1.0  0.20300  0.80300  0.58200  1.0000 -0.0546596867
C   C28       1.0  0.24600  0.76200  0.66900  1.0000 0.1692388209
N   N12       1.0  0.29300  0.70600  0.59000  1.0000 -0.0749315691
O   O47       1.0  0.17300  0.92100  0.11600  1.0000 -0.0585115638
O   O48       1.0  0.10690  0.79500  0.24200  1.0000 -0.2910391537
Hf  Hf9       1.0  0.46340  0.50000  0.31290  1.0000 1.814176515
O   O49       1.0  0.56400  0.50000  0.22200  1.0000 -0.7992717919
O   O50       1.0  0.60300  0.50000  0.87200  1.0000 -0.696779971
Hf  Hf10      1.0  0.96340  0.00000  0.31290  1.0000 1.834659532
O   O51       1.0  0.06400  0.00000  0.22200  1.0000 -0.7992717919
O   O52       1.0  0.10300  0.00000  0.87200  1.0000 -0.696779971
Hf  Hf11      1.0  0.53660  0.50000  0.68710  1.0000 1.8167985233
O   O53       1.0  0.43600  0.50000  0.77800  1.0000 -0.7992717919
O   O54       1.0  0.39700  0.50000  0.12800  1.0000 -0.696779971
Hf  Hf12      1.0  0.03660  0.00000  0.68710  1.0000 1.814176515
O   O55       1.0  0.93600  0.00000  0.77800  1.0000 -0.7992717919
O   O56       1.0  0.89700  0.00000  0.12800  1.0000 -0.6925398556
O   O57       1.0  0.50000  0.59400  0.50000  1.0000 -0.5117365821
O   O58       1.0  0.00000  0.09400  0.50000  1.0000 -0.5117365821
O   O59       1.0  0.50000  0.40600  0.50000  1.0000 -0.5117365821
O   O60       1.0  0.00000  0.90600  0.50000  1.0000 -0.5117365821
C   C29       1.0  0.50000  0.80174  0.00000  1.0000 0.6776737007
C   C30       1.0  0.50000  0.90546  0.00000  1.0000 -0.0046753359
C   C31       1.0  0.00000  0.30174  0.00000  1.0000 0.6776737007
C   C32       1.0  0.00000  0.40546  0.00000  1.0000 -0.0046753359
C   C33       1.0  0.50000  0.19826  0.00000  1.0000 0.6776737007
C   C34       1.0  0.50000  0.09454  0.00000  1.0000 -0.0076315909
C   C35       1.0  0.00000  0.69826  0.00000  1.0000 0.6776737007
C   C36       1.0  0.00000  0.59454  0.00000  1.0000 -0.0076315909
  C   C37       1.0  0.55500  0.95200  0.03300  1.0000
  N   N13       1.0  0.44500  0.95200  0.96700  1.0000
  C   C38       1.0  0.05500  0.45200  0.03300  1.0000
  N   N14       1.0  0.94500  0.45200  0.96700  1.0000
  C   C39       1.0  0.44500  0.04800  0.96700  1.0000
  N   N15       1.0  0.55500  0.04800  0.03300  1.0000
  C   C40       1.0  0.94500  0.54800  0.96700  1.0000
  N   N16       1.0  0.05500  0.54800  0.03300  1.0000
