# DDEC6 charges by PACMAN v1.1 (https://github.com/mtap-research/PACMAN-charge/)
data_YAWFEI_ion_pacman
_symmetry_space_group_name_H-M   'P 1'
_cell_length_a   8.86220000
_cell_length_b   14.86120000
_cell_length_c   19.10140000
_cell_angle_alpha   86.44340000
_cell_angle_beta   84.53160000
_cell_angle_gamma   84.82050000
_symmetry_Int_Tables_number   1
_chemical_formula_structural   Cd5H21C30N15Cl2
_chemical_formula_sum   'Cd10 H42 C60 N30 Cl4'
_cell_volume   2490.41063799
_cell_formula_units_Z   2
loop_
 _symmetry_equiv_pos_site_id
 _symmetry_equiv_pos_as_xyz
  1  'x, y, z'
loop_
 _atom_site_type_symbol
 _atom_site_label
 _atom_site_symmetry_multiplicity
 _atom_site_fract_x
 _atom_site_fract_y
 _atom_site_fract_z
 _atom_site_occupancy
 _atom_site_charge
Cd  Cd1  1  0.29539000  0.07850000  0.29900000  1.0 0.9295803144
Cd  Cd2  1  0.70461000  0.92150000  0.70100000  1.0 0.9295803144
Cd  Cd3  1  0.86953000  0.29642000  0.02130000  1.0 0.6952734425
Cd  Cd4  1  0.13047000  0.70358000  0.97870000  1.0 0.6933751538
Cd  Cd5  1  0.74653000  0.16754000  0.47029000  1.0 0.4809653148
Cd  Cd6  1  0.25347000  0.83246000  0.52971000  1.0 0.4809653148
Cd  Cd7  1  0.30805000  0.43206000  0.17020000  1.0 0.5714855626
Cd  Cd8  1  0.69195000  0.56794000  0.82980000  1.0 0.5714855626
Cd  Cd9  1  0.84656000  0.95647000  0.14815000  1.0 0.554903759
Cd  Cd10  1  0.15344000  0.04353000  0.85185000  1.0 0.554903759
H  H1  1  0.43340000  0.34460000  0.51670000  1.0 0.0902385498
H  H2  1  0.45240000  0.45660000  0.59300000  1.0 0.1303139314
H  H3  1  0.99940000  0.49080000  0.61340000  1.0 0.1392012596
H  H4  1  0.99250000  0.37960000  0.53740000  1.0 0.0902385498
H  H5  1  0.46120000  0.69240000  0.71570000  1.0 0.1235198512
H  H6  1  0.45920000  0.56860000  0.65220000  1.0 0.1303139314
H  H7  1  0.00560000  0.59260000  0.67780000  1.0 0.1392012596
H  H8  1  0.01440000  0.71690000  0.74100000  1.0 0.1303139314
H  H9  1  0.23100000  0.22670000  0.48990000  1.0 0.1572266951
H  H10  1  0.10730000  0.28880000  0.45210000  1.0 0.1392012596
H  H11  1  0.28030000  0.29560000  0.42830000  1.0 0.1572266951
H  H12  1  0.21750000  0.85340000  0.73800000  1.0 0.1495075943
H  H13  1  0.17380000  0.80230000  0.81040000  1.0 0.1495075943
H  H14  1  0.34530000  0.80590000  0.78220000  1.0 0.1572266951
H  H15  1  0.56660000  0.65540000  0.48330000  1.0 0.0902385498
H  H16  1  0.54760000  0.54340000  0.40700000  1.0 0.1303139314
H  H17  1  0.00060000  0.50920000  0.38660000  1.0 0.1392012596
H  H18  1  0.00750000  0.62040000  0.46260000  1.0 0.0902385498
H  H19  1  0.53880000  0.30760000  0.28430000  1.0 0.1235198512
H  H20  1  0.54080000  0.43140000  0.34780000  1.0 0.1303139314
H  H21  1  0.99440000  0.40740000  0.32220000  1.0 0.1392012596
H  H22  1  0.98560000  0.28310000  0.25900000  1.0 0.1303139314
H  H23  1  0.76900000  0.77330000  0.51010000  1.0 0.1572266951
H  H24  1  0.89270000  0.71120000  0.54790000  1.0 0.1392012596
H  H25  1  0.71970000  0.70440000  0.57170000  1.0 0.1572266951
H  H26  1  0.78250000  0.14660000  0.26200000  1.0 0.1495075943
H  H27  1  0.82620000  0.19770000  0.18960000  1.0 0.1495075943
H  H28  1  0.65470000  0.19410000  0.21780000  1.0 0.1572266951
H  H29  1  0.46600000  0.78490000  0.12160000  1.0 0.1303139314
H  H30  1  0.53400000  0.21510000  0.87840000  1.0 0.1303139314
H  H31  1  0.41550000  0.93510000  0.10570000  1.0 0.1495075943
H  H32  1  0.58450000  0.06490000  0.89430000  1.0 0.1495075943
H  H33  1  0.61790000  0.91830000  0.90970000  1.0 0.1495075943
H  H34  1  0.38210000  0.08170000  0.09030000  1.0 0.1495075943
H  H35  1  0.66140000  0.76810000  0.93080000  1.0 0.1303139314
H  H36  1  0.33860000  0.23190000  0.06920000  1.0 0.1303139314
H  H37  1  0.53830000  0.63230000  0.01630000  1.0 0.1495075943
H  H38  1  0.46170000  0.36770000  0.98370000  1.0 0.1495075943
H  H39  1  0.58670000  0.64960000  0.09080000  1.0 0.1495075943
H  H40  1  0.41330000  0.35040000  0.90920000  1.0 0.1495075943
H  H41  1  0.70760000  0.64850000  0.02530000  1.0 0.1572266951
H  H42  1  0.29240000  0.35150000  0.97470000  1.0 0.1572266951
C  C1  1  0.55340000  0.14830000  0.40790000  1.0 -0.059585964
C  C2  1  0.44660000  0.85170000  0.59210000  1.0 -0.059585964
C  C3  1  0.04760000  0.98970000  0.19890000  1.0 -0.022326606
C  C4  1  0.95240000  0.01030000  0.80110000  1.0 -0.022326606
C  C5  1  0.26940000  0.91660000  0.43140000  1.0 -0.0075543005
C  C6  1  0.73060000  0.08340000  0.56860000  1.0 -0.0075543005
C  C7  1  0.62650000  0.98490000  0.20940000  1.0 -0.0502878244
C  C8  1  0.37350000  0.01510000  0.79060000  1.0 -0.0502878244
C  C9  1  0.96020000  0.14470000  0.40130000  1.0 -0.0502878244
C  C10  1  0.03980000  0.85530000  0.59870000  1.0 -0.0502878244
C  C11  1  0.82270000  0.15400000  0.05160000  1.0 -0.0422223719
C  C12  1  0.17730000  0.84600000  0.94840000  1.0 -0.0422223719
C  C13  1  0.88380000  0.83450000  0.08860000  1.0 -0.0739838347
C  C14  1  0.11620000  0.16550000  0.91140000  1.0 -0.0739838347
C  C15  1  0.11980000  0.38600000  0.11520000  1.0 -0.022326606
C  C16  1  0.88020000  0.61400000  0.88480000  1.0 -0.022326606
C  C17  1  0.53890000  0.39040000  0.12070000  1.0 -0.059585964
C  C18  1  0.46110000  0.60960000  0.87930000  1.0 -0.059585964
C  C19  1  0.26940000  0.46340000  0.28280000  1.0 -0.0502878244
C  C20  1  0.73060000  0.53660000  0.71720000  1.0 -0.0502878244
C  C21  1  0.78180000  0.37760000  0.93100000  1.0 -0.0422223719
C  C22  1  0.21820000  0.62240000  0.06900000  1.0 -0.0422223719
C  C23  1  0.72200000  0.31600000  0.51600000  1.0 -0.275336878
C  C24  1  0.27800000  0.68400000  0.48400000  1.0 -0.274410294
C  C25  1  0.34530000  0.37600000  0.53610000  1.0 0.0230908639
C  C26  1  0.35750000  0.44290000  0.58180000  1.0 -0.2094784841
C  C27  1  0.22580000  0.48950000  0.61070000  1.0 0.1003554473
C  C28  1  0.09020000  0.46280000  0.59350000  1.0 -0.2006413356
C  C29  1  0.08580000  0.39640000  0.54820000  1.0 0.008177864
C  C30  1  0.36850000  0.67240000  0.70710000  1.0 0.0230908639
C  C31  1  0.36750000  0.59830000  0.66950000  1.0 -0.2006413356
C  C32  1  0.23110000  0.56580000  0.65630000  1.0 0.1003554473
C  C33  1  0.09940000  0.61250000  0.68460000  1.0 -0.1914209664
C  C34  1  0.10460000  0.68700000  0.72220000  1.0 0.0338415936
C  C35  1  0.20750000  0.28550000  0.46790000  1.0 -0.3472248554
C  C36  1  0.24430000  0.80230000  0.76900000  1.0 -0.3383406565
C  C37  1  0.65470000  0.62400000  0.46390000  1.0 0.0230908639
C  C38  1  0.64250000  0.55710000  0.41820000  1.0 -0.2094784841
C  C39  1  0.77420000  0.51050000  0.38930000  1.0 0.1003554473
C  C40  1  0.90980000  0.53720000  0.40650000  1.0 -0.2006413356
C  C41  1  0.91420000  0.60360000  0.45180000  1.0 0.008177864
C  C42  1  0.63150000  0.32760000  0.29290000  1.0 0.0230908639
C  C43  1  0.63250000  0.40170000  0.33050000  1.0 -0.2006413356
C  C44  1  0.76890000  0.43420000  0.34370000  1.0 0.1003554473
C  C45  1  0.90060000  0.38750000  0.31540000  1.0 -0.1914209664
C  C46  1  0.89540000  0.31300000  0.27780000  1.0 0.035011696
C  C47  1  0.79250000  0.71450000  0.53210000  1.0 -0.3472248554
C  C48  1  0.75570000  0.19770000  0.23100000  1.0 -0.3383406565
C  C49  1  0.49670000  0.81300000  0.07840000  1.0 0.008177864
C  C50  1  0.50330000  0.18700000  0.92160000  1.0 0.008177864
C  C51  1  0.46750000  0.90330000  0.06910000  1.0 -0.1914209664
C  C52  1  0.53250000  0.09670000  0.93090000  1.0 -0.1914209664
C  C53  1  0.51320000  0.95160000  0.00560000  1.0 0.1003554473
C  C54  1  0.48680000  0.04840000  0.99440000  1.0 0.1003554473
C  C55  1  0.58640000  0.89320000  0.95390000  1.0 -0.1836036682
C  C56  1  0.41360000  0.10680000  0.04610000  1.0 -0.1836036682
C  C57  1  0.61190000  0.80290000  0.96630000  1.0 0.0338415936
C  C58  1  0.38810000  0.19710000  0.03370000  1.0 0.0338415936
C  C59  1  0.60320000  0.66480000  0.04120000  1.0 -0.3284587561
C  C60  1  0.39680000  0.33520000  0.95880000  1.0 -0.3284587561
N  N1  1  0.46210000  0.13440000  0.37370000  1.0 -0.3185456559
N  N2  1  0.53790000  0.86560000  0.62630000  1.0 -0.3185456559
N  N3  1  0.14560000  0.01180000  0.22410000  1.0 -0.3185456559
N  N4  1  0.85440000  0.98820000  0.77590000  1.0 -0.3185456559
N  N5  1  0.28030000  0.95820000  0.38020000  1.0 -0.3110027179
N  N6  1  0.71970000  0.04180000  0.61980000  1.0 -0.3110027179
N  N7  1  0.51170000  0.00820000  0.23720000  1.0 -0.3284587561
N  N8  1  0.48830000  0.99180000  0.76280000  1.0 -0.3284587561
N  N9  1  0.06880000  0.13480000  0.36510000  1.0 -0.3185456559
N  N10  1  0.93120000  0.86520000  0.63490000  1.0 -0.3185456559
N  N11  1  0.82070000  0.08170000  0.07090000  1.0 -0.3110027179
N  N12  1  0.17930000  0.91830000  0.92910000  1.0 -0.3110027179
N  N13  1  0.91420000  0.77320000  0.05620000  1.0 -0.3185456559
N  N14  1  0.08580000  0.22680000  0.94380000  1.0 -0.3185456559
N  N15  1  0.03260000  0.35700000  0.08430000  1.0 -0.3383406565
N  N16  1  0.96740000  0.64300000  0.91570000  1.0 -0.3284587561
N  N17  1  0.65170000  0.36140000  0.09690000  1.0 -0.3284587561
N  N18  1  0.34830000  0.63860000  0.90310000  1.0 -0.3284587561
N  N19  1  0.26050000  0.46900000  0.33920000  1.0 -0.3472248554
N  N20  1  0.73950000  0.53100000  0.66080000  1.0 -0.3472248554
N  N21  1  0.73920000  0.42720000  0.88890000  1.0 -0.3284587561
N  N22  1  0.26080000  0.57280000  0.11110000  1.0 -0.3284587561
N  N23  1  0.72500000  0.38560000  0.52290000  1.0 0.0662314728
N  N24  1  0.27500000  0.61440000  0.47710000  1.0 0.0662314728
N  N25  1  0.21330000  0.35550000  0.51940000  1.0 0.1572266951
N  N26  1  0.23840000  0.71790000  0.73250000  1.0 0.1392012596
N  N27  1  0.78670000  0.64450000  0.48060000  1.0 0.1572266951
N  N28  1  0.76160000  0.28210000  0.26750000  1.0 0.1392012596
N  N29  1  0.56800000  0.76260000  0.02790000  1.0 0.1392012596
N  N30  1  0.43200000  0.23740000  0.97210000  1.0 0.1392012596
Cl  Cl1  1  0.30610000  0.23024000  0.22033000  1.0 -0.645388262
Cl  Cl2  1  0.69390000  0.76976000  0.77967000  1.0 -0.645388262
Cl  Cl3  1  0.73680000  0.32520000  0.50610000  1.0 0.0902385498
Cl  Cl4  1  0.26320000  0.67480000  0.49390000  1.0 0.0902385498
