# DDEC6 charges by PACMAN v1.1 (https://github.com/mtap-research/PACMAN-charge/)
data_YAWFOS_ion_pacman
_symmetry_space_group_name_H-M   'P 1'
_cell_length_a   8.89650000
_cell_length_b   11.71930000
_cell_length_c   52.41400000
_cell_angle_alpha   90.00000000
_cell_angle_beta   97.73400000
_cell_angle_gamma   90.00000000
_symmetry_Int_Tables_number   1
_chemical_formula_structural   Cd6H21C32N17
_chemical_formula_sum   'Cd24 H84 C128 N68'
_cell_volume   5415.01331415
_cell_formula_units_Z   4
loop_
 _symmetry_equiv_pos_site_id
 _symmetry_equiv_pos_as_xyz
  1  'x, y, z'
loop_
 _atom_site_type_symbol
 _atom_site_label
 _atom_site_symmetry_multiplicity
 _atom_site_fract_x
 _atom_site_fract_y
 _atom_site_fract_z
 _atom_site_occupancy
 _atom_site_charge
Cd  Cd1  1  0.67576000  0.88439000  0.93083000  1.0 0.9496963652
Cd  Cd2  1  0.32424000  0.38439000  0.56917000  1.0 0.9496963652
Cd  Cd3  1  0.32424000  0.11561000  0.06917000  1.0 0.9496963652
Cd  Cd4  1  0.67576000  0.61561000  0.43083000  1.0 0.9496963652
Cd  Cd5  1  0.63877000  0.84283000  0.82063000  1.0 0.7822723272
Cd  Cd6  1  0.36123000  0.34283000  0.67937000  1.0 0.7822723272
Cd  Cd7  1  0.36123000  0.15717000  0.17937000  1.0 0.7822723272
Cd  Cd8  1  0.63877000  0.65717000  0.32063000  1.0 0.7822723272
Cd  Cd9  1  0.11339000  0.55865000  0.81677000  1.0 0.583245847
Cd  Cd10  1  0.88661000  0.05865000  0.68323000  1.0 0.583245847
Cd  Cd11  1  0.88661000  0.44135000  0.18323000  1.0 0.583245847
Cd  Cd12  1  0.11339000  0.94135000  0.31677000  1.0 0.583245847
Cd  Cd13  1  0.16516000  0.58964000  0.92732000  1.0 0.4292281898
Cd  Cd14  1  0.83484000  0.08964000  0.57268000  1.0 0.4292281898
Cd  Cd15  1  0.83484000  0.41036000  0.07268000  1.0 0.4292281898
Cd  Cd16  1  0.16516000  0.91036000  0.42732000  1.0 0.4292281898
Cd  Cd17  1  0.12490000  0.09623000  0.78941000  1.0 0.514341298
Cd  Cd18  1  0.87510000  0.59623000  0.71059000  1.0 0.514341298
Cd  Cd19  1  0.87510000  0.90377000  0.21059000  1.0 0.514341298
Cd  Cd20  1  0.12490000  0.40377000  0.28941000  1.0 0.514341298
Cd  Cd21  1  0.21714000  0.13440000  0.96105000  1.0 0.583245847
Cd  Cd22  1  0.78286000  0.63440000  0.53895000  1.0 0.583245847
Cd  Cd23  1  0.78286000  0.86560000  0.03895000  1.0 0.583245847
Cd  Cd24  1  0.21714000  0.36560000  0.46105000  1.0 0.583245847
H  H1  1  0.73580000  0.79700000  0.78180000  1.0 0.291301209
H  H2  1  0.26420000  0.29700000  0.71820000  1.0 0.291301209
H  H3  1  0.26420000  0.20300000  0.21820000  1.0 0.291301209
H  H4  1  0.73580000  0.70300000  0.28180000  1.0 0.291301209
H  H5  1  0.61330000  0.71540000  0.78610000  1.0 0.2817671928
H  H6  1  0.38670000  0.21540000  0.71390000  1.0 0.2817671928
H  H7  1  0.38670000  0.28460000  0.21390000  1.0 0.2817671928
H  H8  1  0.61330000  0.78460000  0.28610000  1.0 0.2817671928
H  H9  1  0.70090000  0.93270000  0.74590000  1.0 0.1395418868
H  H10  1  0.29910000  0.43270000  0.75410000  1.0 0.1395418868
H  H11  1  0.29910000  0.06730000  0.25410000  1.0 0.1395418868
H  H12  1  0.70090000  0.56730000  0.24590000  1.0 0.1395418868
H  H13  1  0.53500000  0.01270000  0.71120000  1.0 0.1023287657
H  H14  1  0.46500000  0.51270000  0.78880000  1.0 0.1023287657
H  H15  1  0.46500000  0.98730000  0.28880000  1.0 0.1023287657
H  H16  1  0.53500000  0.48730000  0.21120000  1.0 0.1023287657
H  H17  1  0.28140000  0.95460000  0.70420000  1.0 0.1117873234
H  H18  1  0.71860000  0.45460000  0.79580000  1.0 0.1117873234
H  H19  1  0.71860000  0.04540000  0.29580000  1.0 0.1117873234
H  H20  1  0.28140000  0.54540000  0.20420000  1.0 0.1117873234
H  H21  1  0.20500000  0.80980000  0.72790000  1.0 0.1223552707
H  H22  1  0.79500000  0.30980000  0.77210000  1.0 0.1223552707
H  H23  1  0.79500000  0.19020000  0.27210000  1.0 0.1223552707
H  H24  1  0.20500000  0.69020000  0.22790000  1.0 0.1223552707
H  H25  1  0.36370000  0.72910000  0.76100000  1.0 0.1395418868
H  H26  1  0.63630000  0.22910000  0.73900000  1.0 0.1395418868
H  H27  1  0.63630000  0.27090000  0.23900000  1.0 0.1395418868
H  H28  1  0.36370000  0.77090000  0.26100000  1.0 0.1395418868
H  H29  1  0.53330000  0.03780000  0.34280000  1.0 0.1252843659
H  H30  1  0.42050000  0.21610000  0.33900000  1.0 0.1486183959
H  H31  1  0.38560000  0.20330000  0.41460000  1.0 0.1395418868
H  H32  1  0.50830000  0.02970000  0.41680000  1.0 0.1117873234
H  H33  1  0.31410000  0.59560000  0.35240000  1.0 0.1223552707
H  H34  1  0.44250000  0.42390000  0.35430000  1.0 0.1395418868
H  H35  1  0.13240000  0.29000000  0.39470000  1.0 0.1395418868
H  H36  1  0.00150000  0.46770000  0.39110000  1.0 0.1223552707
H  H37  1  0.65860000  0.89450000  0.39870000  1.0 0.1486183959
H  H38  1  0.67910000  0.90470000  0.36960000  1.0 0.1486183959
H  H39  1  0.53170000  0.84940000  0.37750000  1.0 0.1585739288
H  H40  1  0.14450000  0.71810000  0.36760000  1.0 0.1486183959
H  H41  1  0.04800000  0.67590000  0.38860000  1.0 0.1486183959
H  H42  1  0.98720000  0.65920000  0.35940000  1.0 0.1486183959
H  H43  1  0.46670000  0.53780000  0.15720000  1.0 0.1252843659
H  H44  1  0.57950000  0.71610000  0.16100000  1.0 0.1486183959
H  H45  1  0.61440000  0.70330000  0.08540000  1.0 0.1395418868
H  H46  1  0.49170000  0.52970000  0.08320000  1.0 0.1117873234
H  H47  1  0.68590000  0.09560000  0.14760000  1.0 0.1223552707
H  H48  1  0.55750000  0.92390000  0.14570000  1.0 0.1395418868
H  H49  1  0.86760000  0.79000000  0.10530000  1.0 0.1395418868
H  H50  1  0.99850000  0.96770000  0.10890000  1.0 0.1223552707
H  H51  1  0.34140000  0.39450000  0.10130000  1.0 0.1486183959
H  H52  1  0.32090000  0.40470000  0.13040000  1.0 0.1486183959
H  H53  1  0.46830000  0.34940000  0.12250000  1.0 0.1585739288
H  H54  1  0.85550000  0.21810000  0.13240000  1.0 0.1486183959
H  H55  1  0.95200000  0.17590000  0.11140000  1.0 0.1486183959
H  H56  1  0.01280000  0.15920000  0.14060000  1.0 0.1486183959
H  H57  1  0.46670000  0.96220000  0.65720000  1.0 0.1252843659
H  H58  1  0.57950000  0.78390000  0.66100000  1.0 0.1486183959
H  H59  1  0.61440000  0.79670000  0.58540000  1.0 0.1395418868
H  H60  1  0.49170000  0.97030000  0.58320000  1.0 0.1117873234
H  H61  1  0.68590000  0.40440000  0.64760000  1.0 0.1223552707
H  H62  1  0.55750000  0.57610000  0.64570000  1.0 0.1395418868
H  H63  1  0.86760000  0.71000000  0.60530000  1.0 0.1395418868
H  H64  1  0.99850000  0.53230000  0.60890000  1.0 0.1223552707
H  H65  1  0.34140000  0.10550000  0.60130000  1.0 0.1486183959
H  H66  1  0.32090000  0.09530000  0.63040000  1.0 0.1486183959
H  H67  1  0.46830000  0.15060000  0.62250000  1.0 0.1585739288
H  H68  1  0.85550000  0.28190000  0.63240000  1.0 0.1486183959
H  H69  1  0.95200000  0.32410000  0.61140000  1.0 0.1486183959
H  H70  1  0.01280000  0.34080000  0.64060000  1.0 0.1486183959
H  H71  1  0.53330000  0.46220000  0.84280000  1.0 0.1252843659
H  H72  1  0.42050000  0.28390000  0.83900000  1.0 0.1486183959
H  H73  1  0.38560000  0.29670000  0.91460000  1.0 0.1395418868
H  H74  1  0.50830000  0.47030000  0.91680000  1.0 0.1117873234
H  H75  1  0.31410000  0.90440000  0.85240000  1.0 0.1223552707
H  H76  1  0.44250000  0.07610000  0.85430000  1.0 0.1395418868
H  H77  1  0.13240000  0.21000000  0.89470000  1.0 0.1395418868
H  H78  1  0.00150000  0.03230000  0.89110000  1.0 0.1223552707
H  H79  1  0.65860000  0.60550000  0.89870000  1.0 0.1486183959
H  H80  1  0.67910000  0.59530000  0.86960000  1.0 0.1486183959
H  H81  1  0.53170000  0.65060000  0.87750000  1.0 0.1585739288
H  H82  1  0.14450000  0.78190000  0.86760000  1.0 0.1486183959
H  H83  1  0.04800000  0.82410000  0.88860000  1.0 0.1486183959
H  H84  1  0.98720000  0.84080000  0.85940000  1.0 0.1486183959
C  C1  1  0.65310000  0.87620000  0.86440000  1.0 -0.0276222159
C  C2  1  0.34690000  0.37620000  0.63560000  1.0 -0.0276222159
C  C3  1  0.34690000  0.12380000  0.13560000  1.0 -0.0247090892
C  C4  1  0.65310000  0.62380000  0.36440000  1.0 -0.0247090892
C  C5  1  0.35920000  0.70740000  0.93140000  1.0 -0.0496984289
C  C6  1  0.64080000  0.20740000  0.56860000  1.0 -0.0496984289
C  C7  1  0.64080000  0.29260000  0.06860000  1.0 -0.0496984289
C  C8  1  0.35920000  0.79260000  0.43140000  1.0 -0.0496984289
C  C9  1  0.00480000  0.04770000  0.94520000  1.0 -0.0389802116
C  C10  1  0.99520000  0.54770000  0.55480000  1.0 -0.0389802116
C  C11  1  0.99520000  0.95230000  0.05480000  1.0 -0.0389802116
C  C12  1  0.00480000  0.45230000  0.44520000  1.0 -0.0389802116
C  C13  1  0.72950000  0.86880000  0.99690000  1.0 0.0098654344
C  C14  1  0.27050000  0.36880000  0.50310000  1.0 0.0098654344
C  C15  1  0.27050000  0.13120000  0.00310000  1.0 0.0098654344
C  C16  1  0.72950000  0.63120000  0.49690000  1.0 0.0098654344
C  C17  1  0.40960000  0.07850000  0.94100000  1.0 -0.0389802116
C  C18  1  0.59040000  0.57850000  0.55900000  1.0 -0.0389802116
C  C19  1  0.59040000  0.92150000  0.05900000  1.0 -0.0389802116
C  C20  1  0.40960000  0.42150000  0.44100000  1.0 -0.0389802116
C  C21  1  0.94760000  0.67230000  0.93160000  1.0 -0.0496984289
C  C22  1  0.05240000  0.17230000  0.56840000  1.0 -0.0496984289
C  C23  1  0.05240000  0.32770000  0.06840000  1.0 -0.0496984289
C  C24  1  0.94760000  0.82770000  0.43160000  1.0 -0.0496984289
C  C25  1  0.89480000  0.62600000  0.82540000  1.0 -0.0276222159
C  C26  1  0.10520000  0.12600000  0.67460000  1.0 -0.0276222159
C  C27  1  0.10520000  0.37400000  0.17460000  1.0 -0.0276222159
C  C28  1  0.89480000  0.87400000  0.32540000  1.0 -0.0276222159
C  C29  1  0.95640000  0.99850000  0.80880000  1.0 -0.0591404896
C  C30  1  0.04360000  0.49850000  0.69120000  1.0 -0.0591404896
C  C31  1  0.04360000  0.00150000  0.19120000  1.0 -0.0591404896
C  C32  1  0.95640000  0.50150000  0.30880000  1.0 -0.0591404896
C  C33  1  0.35880000  0.02860000  0.79870000  1.0 -0.0496984289
C  C34  1  0.64120000  0.52860000  0.70130000  1.0 -0.0496984289
C  C35  1  0.64120000  0.97140000  0.20130000  1.0 -0.0496984289
C  C36  1  0.35880000  0.47140000  0.29870000  1.0 -0.0496984289
C  C37  1  0.31220000  0.66830000  0.81970000  1.0 -0.0591404896
C  C38  1  0.68780000  0.16830000  0.68030000  1.0 -0.0591404896
C  C39  1  0.68780000  0.33170000  0.18030000  1.0 -0.0591404896
C  C40  1  0.31220000  0.83170000  0.31970000  1.0 -0.0591404896
C  C41  1  0.16420000  0.54700000  0.88550000  1.0 -0.0591404896
C  C42  1  0.83580000  0.04700000  0.61450000  1.0 -0.0591404896
C  C43  1  0.83580000  0.45300000  0.11450000  1.0 -0.0591404896
C  C44  1  0.16420000  0.95300000  0.38550000  1.0 -0.0591404896
C  C45  1  0.12630000  0.37330000  0.80900000  1.0 -0.0276222159
C  C46  1  0.87370000  0.87330000  0.69100000  1.0 -0.0276222159
C  C47  1  0.87370000  0.62670000  0.19100000  1.0 -0.0276222159
C  C48  1  0.12630000  0.12670000  0.30900000  1.0 -0.0276222159
C  C49  1  0.97310000  0.60230000  0.75110000  1.0 -0.0496984289
C  C50  1  0.02690000  0.10230000  0.74890000  1.0 -0.0496984289
C  C51  1  0.02690000  0.39770000  0.24890000  1.0 -0.0496984289
C  C52  1  0.97310000  0.89770000  0.25110000  1.0 -0.0496984289
C  C53  1  0.18560000  0.41890000  0.94570000  1.0 -0.006309934
C  C54  1  0.81440000  0.91890000  0.55430000  1.0 -0.006309934
C  C55  1  0.81440000  0.58110000  0.05430000  1.0 -0.006309934
C  C56  1  0.18560000  0.08110000  0.44570000  1.0 -0.006309934
C  C57  1  0.54930000  0.81860000  0.75560000  1.0 0.2537331018
C  C58  1  0.45070000  0.31860000  0.74440000  1.0 0.2537331018
C  C59  1  0.45070000  0.18140000  0.24440000  1.0 0.2537331018
C  C60  1  0.54930000  0.68140000  0.25560000  1.0 0.2537331018
C  C61  1  0.60200000  0.90630000  0.74200000  1.0 -0.2011278314
C  C62  1  0.39800000  0.40630000  0.75800000  1.0 -0.2011278314
C  C63  1  0.39800000  0.09370000  0.25800000  1.0 -0.2011278314
C  C64  1  0.60200000  0.59370000  0.24200000  1.0 -0.2011278314
C  C65  1  0.50000000  0.95640000  0.72140000  1.0 -0.0814855736
C  C66  1  0.50000000  0.45640000  0.77860000  1.0 -0.0814855736
C  C67  1  0.50000000  0.04360000  0.27860000  1.0 -0.0814855736
C  C68  1  0.50000000  0.54360000  0.22140000  1.0 -0.0814855736
C  C69  1  0.34900000  0.92040000  0.71690000  1.0 -0.1280714166
C  C70  1  0.65100000  0.42040000  0.78310000  1.0 -0.1280714166
C  C71  1  0.65100000  0.07960000  0.28310000  1.0 -0.1280714166
C  C72  1  0.34900000  0.57960000  0.21690000  1.0 -0.1280714166
C  C73  1  0.30500000  0.83600000  0.73140000  1.0 -0.0591404896
C  C74  1  0.69500000  0.33600000  0.76860000  1.0 -0.0591404896
C  C75  1  0.69500000  0.16400000  0.26860000  1.0 -0.0591404896
C  C76  1  0.30500000  0.66400000  0.23140000  1.0 -0.0591404896
C  C77  1  0.40000000  0.78540000  0.75090000  1.0 -0.1804280248
C  C78  1  0.60000000  0.28540000  0.74910000  1.0 -0.1804280248
C  C79  1  0.60000000  0.21460000  0.24910000  1.0 -0.1804280248
C  C80  1  0.40000000  0.71460000  0.25090000  1.0 -0.1804280248
C  C81  1  0.50450000  0.07320000  0.35730000  1.0 0.0178205422
C  C82  1  0.43310000  0.17810000  0.35470000  1.0 -0.1722705331
C  C83  1  0.38010000  0.22600000  0.37620000  1.0 0.1117873234
C  C84  1  0.41370000  0.17070000  0.39970000  1.0 -0.1873357114
C  C85  1  0.48880000  0.06720000  0.40110000  1.0 0.0421418958
C  C86  1  0.27840000  0.53390000  0.36100000  1.0 0.0421418958
C  C87  1  0.35430000  0.43140000  0.36190000  1.0 -0.1873357114
C  C88  1  0.29720000  0.33890000  0.37430000  1.0 0.1117873234
C  C89  1  0.16870000  0.35080000  0.38590000  1.0 -0.2011278314
C  C90  1  0.09170000  0.45820000  0.38420000  1.0 0.0320560108
C  C91  1  0.60720000  0.90740000  0.38170000  1.0 -0.3502424401
C  C92  1  0.07630000  0.66010000  0.37200000  1.0 -0.3502424401
C  C93  1  0.49550000  0.57320000  0.14270000  1.0 0.0178205422
C  C94  1  0.56690000  0.67810000  0.14530000  1.0 -0.1722705331
C  C95  1  0.61990000  0.72600000  0.12380000  1.0 0.1117873234
C  C96  1  0.58630000  0.67070000  0.10030000  1.0 -0.1873357114
C  C97  1  0.51120000  0.56720000  0.09890000  1.0 0.0421418958
C  C98  1  0.72160000  0.03390000  0.13900000  1.0 0.0421418958
C  C99  1  0.64570000  0.93140000  0.13810000  1.0 -0.1873357114
C  C100  1  0.70280000  0.83890000  0.12570000  1.0 0.1117873234
C  C101  1  0.83130000  0.85080000  0.11410000  1.0 -0.2011278314
C  C102  1  0.90830000  0.95820000  0.11580000  1.0 0.0320560108
C  C103  1  0.39280000  0.40740000  0.11830000  1.0 -0.3502424401
C  C104  1  0.92370000  0.16010000  0.12800000  1.0 -0.3502424401
C  C105  1  0.49550000  0.92680000  0.64270000  1.0 0.0178205422
C  C106  1  0.56690000  0.82190000  0.64530000  1.0 -0.1722705331
C  C107  1  0.61990000  0.77400000  0.62380000  1.0 0.1117873234
C  C108  1  0.58630000  0.82930000  0.60030000  1.0 -0.1873357114
C  C109  1  0.51120000  0.93280000  0.59890000  1.0 0.0421418958
C  C110  1  0.72160000  0.46610000  0.63900000  1.0 0.0421418958
C  C111  1  0.64570000  0.56860000  0.63810000  1.0 -0.1873357114
C  C112  1  0.70280000  0.66110000  0.62570000  1.0 0.1117873234
C  C113  1  0.83130000  0.64920000  0.61410000  1.0 -0.2011278314
C  C114  1  0.90830000  0.54180000  0.61580000  1.0 0.0320560108
C  C115  1  0.39280000  0.09260000  0.61830000  1.0 -0.3502424401
C  C116  1  0.92370000  0.33990000  0.62800000  1.0 -0.3502424401
C  C117  1  0.50450000  0.42680000  0.85730000  1.0 0.0178205422
C  C118  1  0.43310000  0.32190000  0.85470000  1.0 -0.1722705331
C  C119  1  0.38010000  0.27400000  0.87620000  1.0 0.1117873234
C  C120  1  0.41370000  0.32930000  0.89970000  1.0 -0.1873357114
C  C121  1  0.48880000  0.43280000  0.90110000  1.0 0.0421418958
C  C122  1  0.27840000  0.96610000  0.86100000  1.0 0.0421418958
C  C123  1  0.35430000  0.06860000  0.86190000  1.0 -0.1873357114
C  C124  1  0.29720000  0.16110000  0.87430000  1.0 0.1117873234
C  C125  1  0.16870000  0.14920000  0.88590000  1.0 -0.2011278314
C  C126  1  0.09170000  0.04180000  0.88420000  1.0 0.0320560108
C  C127  1  0.60720000  0.59260000  0.88170000  1.0 -0.3502424401
C  C128  1  0.07630000  0.83990000  0.87200000  1.0 -0.3502424401
N  N1  1  0.65980000  0.88400000  0.88600000  1.0 -0.3502424401
N  N2  1  0.34020000  0.38400000  0.61400000  1.0 -0.3502424401
N  N3  1  0.34020000  0.11600000  0.11400000  1.0 -0.3502424401
N  N4  1  0.65980000  0.61600000  0.38600000  1.0 -0.3502424401
N  N5  1  0.46390000  0.76770000  0.93020000  1.0 -0.3502424401
N  N6  1  0.53610000  0.26770000  0.56980000  1.0 -0.3502424401
N  N7  1  0.53610000  0.23230000  0.06980000  1.0 -0.3502424401
N  N8  1  0.46390000  0.73230000  0.43020000  1.0 -0.3502424401
N  N9  1  0.89560000  0.00220000  0.93710000  1.0 -0.329921626
N  N10  1  0.10440000  0.50220000  0.56290000  1.0 -0.329921626
N  N11  1  0.10440000  0.99780000  0.06290000  1.0 -0.329921626
N  N12  1  0.89560000  0.49780000  0.43710000  1.0 -0.329921626
N  N13  1  0.70420000  0.87350000  0.97470000  1.0 -0.3193985843
N  N14  1  0.29580000  0.37350000  0.52530000  1.0 -0.3193985843
N  N15  1  0.29580000  0.12650000  0.02530000  1.0 -0.3193985843
N  N16  1  0.70420000  0.62650000  0.47470000  1.0 -0.3193985843
N  N17  1  0.51190000  0.04130000  0.93250000  1.0 -0.329921626
N  N18  1  0.48810000  0.54130000  0.56750000  1.0 -0.329921626
N  N19  1  0.48810000  0.95870000  0.06750000  1.0 -0.329921626
N  N20  1  0.51190000  0.45870000  0.43250000  1.0 -0.329921626
N  N21  1  0.84010000  0.72310000  0.93240000  1.0 -0.329921626
N  N22  1  0.15990000  0.22310000  0.56760000  1.0 -0.329921626
N  N23  1  0.15990000  0.27690000  0.06760000  1.0 -0.329921626
N  N24  1  0.84010000  0.77690000  0.43240000  1.0 -0.329921626
N  N25  1  0.78690000  0.67550000  0.82900000  1.0 -0.339856137
N  N26  1  0.21310000  0.17550000  0.67100000  1.0 -0.339856137
N  N27  1  0.21310000  0.32450000  0.17100000  1.0 -0.339856137
N  N28  1  0.78690000  0.82450000  0.32900000  1.0 -0.339856137
N  N29  1  0.85940000  0.94620000  0.81560000  1.0 -0.339856137
N  N30  1  0.14060000  0.44620000  0.68440000  1.0 -0.339856137
N  N31  1  0.14060000  0.05380000  0.18440000  1.0 -0.339856137
N  N32  1  0.85940000  0.55380000  0.31560000  1.0 -0.339856137
N  N33  1  0.47170000  0.98700000  0.80600000  1.0 -0.3193985843
N  N34  1  0.52830000  0.48700000  0.69400000  1.0 -0.3193985843
N  N35  1  0.52830000  0.01300000  0.19400000  1.0 -0.3193985843
N  N36  1  0.47170000  0.51300000  0.30600000  1.0 -0.3193985843
N  N37  1  0.42170000  0.72840000  0.82170000  1.0 -0.3502424401
N  N38  1  0.57830000  0.22840000  0.67830000  1.0 -0.3502424401
N  N39  1  0.57830000  0.27160000  0.17830000  1.0 -0.3502424401
N  N40  1  0.42170000  0.77160000  0.32170000  1.0 -0.3502424401
N  N41  1  0.17470000  0.53360000  0.86390000  1.0 -0.329921626
N  N42  1  0.82530000  0.03360000  0.63610000  1.0 -0.329921626
N  N43  1  0.82530000  0.46640000  0.13610000  1.0 -0.329921626
N  N44  1  0.17470000  0.96640000  0.36390000  1.0 -0.329921626
N  N45  1  0.12770000  0.27820000  0.80370000  1.0 -0.3193985843
N  N46  1  0.87230000  0.77820000  0.69630000  1.0 -0.3193985843
N  N47  1  0.87230000  0.72180000  0.19630000  1.0 -0.3193985843
N  N48  1  0.12770000  0.22180000  0.30370000  1.0 -0.3193985843
N  N49  1  0.03720000  0.59640000  0.77200000  1.0 -0.3193985843
N  N50  1  0.96280000  0.09640000  0.72800000  1.0 -0.3193985843
N  N51  1  0.96280000  0.40360000  0.22800000  1.0 -0.3193985843
N  N52  1  0.03720000  0.90360000  0.27200000  1.0 -0.3193985843
N  N53  1  0.19010000  0.32210000  0.95120000  1.0 -0.3502424401
N  N54  1  0.80990000  0.82210000  0.54880000  1.0 -0.3502424401
N  N55  1  0.80990000  0.67790000  0.04880000  1.0 -0.3502424401
N  N56  1  0.19010000  0.17790000  0.45120000  1.0 -0.3502424401
N  N57  1  0.64590000  0.77050000  0.77750000  1.0 -0.5630964008
N  N58  1  0.35410000  0.27050000  0.72250000  1.0 -0.5630964008
N  N59  1  0.35410000  0.22950000  0.22250000  1.0 -0.5630964008
N  N60  1  0.64590000  0.72950000  0.27750000  1.0 -0.5630964008
N  N61  1  0.53330000  0.02100000  0.38050000  1.0 0.1395418868
N  N62  1  0.15350000  0.54560000  0.37240000  1.0 0.1395418868
N  N63  1  0.46670000  0.52100000  0.11950000  1.0 0.1395418868
N  N64  1  0.84650000  0.04560000  0.12760000  1.0 0.1395418868
N  N65  1  0.46670000  0.97900000  0.61950000  1.0 0.1395418868
N  N66  1  0.84650000  0.45440000  0.62760000  1.0 0.1395418868
N  N67  1  0.53330000  0.47900000  0.88050000  1.0 0.1395418868
N  N68  1  0.15350000  0.95440000  0.87240000  1.0 0.1395418868
