# DDEC6 charges by PACMAN v1.1 (https://github.com/mtap-research/PACMAN-charge/)
data_YAWXED_FSR_pacman
_symmetry_space_group_name_H-M   'P 1'
_cell_length_a   10.25800000
_cell_length_b   11.74900000
_cell_length_c   33.27000000
_cell_angle_alpha   90.00000000
_cell_angle_beta   92.21000000
_cell_angle_gamma   90.00000000
_symmetry_Int_Tables_number   1
_chemical_formula_structural   Cd2H16C31(NO3)3
_chemical_formula_sum   'Cd8 H64 C124 N12 O36'
_cell_volume   4006.75928048
_cell_formula_units_Z   4
loop_
 _symmetry_equiv_pos_site_id
 _symmetry_equiv_pos_as_xyz
  1  'x, y, z'
loop_
 _atom_site_type_symbol
 _atom_site_label
 _atom_site_symmetry_multiplicity
 _atom_site_fract_x
 _atom_site_fract_y
 _atom_site_fract_z
 _atom_site_occupancy
 _atom_site_charge
Cd  Cd1  1  0.35515000  0.08524000  0.78855000  1.0 0.9029411871
Cd  Cd2  1  0.93990000  0.50510000  0.07560000  1.0 0.8757214744
Cd  Cd3  1  0.64485000  0.08524000  0.71145000  1.0 0.9029411871
Cd  Cd4  1  0.06010000  0.50510000  0.42440000  1.0 0.8710667093
Cd  Cd5  1  0.64485000  0.91476000  0.21145000  1.0 0.9029411871
Cd  Cd6  1  0.06010000  0.49490000  0.92440000  1.0 0.8710667093
Cd  Cd7  1  0.35515000  0.91476000  0.28855000  1.0 0.9029411871
Cd  Cd8  1  0.93990000  0.49490000  0.57560000  1.0 0.8757214744
H  H1  1  0.79420000  0.93620000  0.96010000  1.0 0.1211465106
H  H2  1  0.79960000  0.92990000  0.02820000  1.0 0.1282061298
H  H3  1  0.84300000  0.09450000  0.06180000  1.0 0.1282061298
H  H4  1  0.06690000  0.09510000  0.90150000  1.0 0.1282061298
H  H5  1  0.87120000  0.07060000  0.79420000  1.0 0.140549995
H  H6  1  0.67770000  0.08150000  0.89520000  1.0 0.140549995
H  H7  1  0.96600000  0.33390000  0.15510000  1.0 0.1211465106
H  H8  1  0.97370000  0.34300000  0.22340000  1.0 0.1282061298
H  H9  1  0.00300000  0.67200000  0.21860000  1.0 0.1472660948
H  H10  1  0.98330000  0.66630000  0.14950000  1.0 0.1014349919
H  H11  1  0.38810000  0.47280000  0.84270000  1.0 0.140549995
H  H12  1  0.29150000  0.48640000  0.72490000  1.0 0.1282061298
H  H13  1  0.39420000  0.64380000  0.83940000  1.0 0.1211465106
H  H14  1  0.37540000  0.86990000  0.84220000  1.0 0.1211465106
H  H15  1  0.29450000  0.86780000  0.73010000  1.0 0.1066226832
H  H16  1  0.30850000  0.65650000  0.72560000  1.0 0.1211465106
H  H17  1  0.20580000  0.93620000  0.53990000  1.0 0.1211465106
H  H18  1  0.20040000  0.92990000  0.47180000  1.0 0.1282061298
H  H19  1  0.15700000  0.09450000  0.43820000  1.0 0.1282061298
H  H20  1  0.93310000  0.09510000  0.59850000  1.0 0.1282061298
H  H21  1  0.12880000  0.07060000  0.70580000  1.0 0.140549995
H  H22  1  0.32230000  0.08150000  0.60480000  1.0 0.140549995
H  H23  1  0.03400000  0.33390000  0.34490000  1.0 0.1211465106
H  H24  1  0.02630000  0.34300000  0.27660000  1.0 0.1282061298
H  H25  1  0.99700000  0.67200000  0.28140000  1.0 0.1472660948
H  H26  1  0.01670000  0.66630000  0.35050000  1.0 0.1014349919
H  H27  1  0.61190000  0.47280000  0.65730000  1.0 0.140549995
H  H28  1  0.70850000  0.48640000  0.77510000  1.0 0.1282061298
H  H29  1  0.60580000  0.64380000  0.66060000  1.0 0.1211465106
H  H30  1  0.62460000  0.86990000  0.65780000  1.0 0.1211465106
H  H31  1  0.70550000  0.86780000  0.76990000  1.0 0.1066226832
H  H32  1  0.69150000  0.65650000  0.77440000  1.0 0.1211465106
H  H33  1  0.20580000  0.06380000  0.03990000  1.0 0.1211465106
H  H34  1  0.20040000  0.07010000  0.97180000  1.0 0.1282061298
H  H35  1  0.15700000  0.90550000  0.93820000  1.0 0.1282061298
H  H36  1  0.93310000  0.90490000  0.09850000  1.0 0.1282061298
H  H37  1  0.12880000  0.92940000  0.20580000  1.0 0.140549995
H  H38  1  0.32230000  0.91850000  0.10480000  1.0 0.140549995
H  H39  1  0.03400000  0.66610000  0.84490000  1.0 0.1211465106
H  H40  1  0.02630000  0.65700000  0.77660000  1.0 0.1282061298
H  H41  1  0.99700000  0.32800000  0.78140000  1.0 0.1472660948
H  H42  1  0.01670000  0.33370000  0.85050000  1.0 0.1014349919
H  H43  1  0.61190000  0.52720000  0.15730000  1.0 0.140549995
H  H44  1  0.70850000  0.51360000  0.27510000  1.0 0.1282061298
H  H45  1  0.60580000  0.35620000  0.16060000  1.0 0.1211465106
H  H46  1  0.62460000  0.13010000  0.15780000  1.0 0.1211465106
H  H47  1  0.70550000  0.13220000  0.26990000  1.0 0.1066226832
H  H48  1  0.69150000  0.34350000  0.27440000  1.0 0.1211465106
H  H49  1  0.79420000  0.06380000  0.46010000  1.0 0.1211465106
H  H50  1  0.79960000  0.07010000  0.52820000  1.0 0.1282061298
H  H51  1  0.84300000  0.90550000  0.56180000  1.0 0.1282061298
H  H52  1  0.06690000  0.90490000  0.40150000  1.0 0.1282061298
H  H53  1  0.87120000  0.92940000  0.29420000  1.0 0.140549995
H  H54  1  0.67770000  0.91850000  0.39520000  1.0 0.140549995
H  H55  1  0.96600000  0.66610000  0.65510000  1.0 0.1211465106
H  H56  1  0.97370000  0.65700000  0.72340000  1.0 0.1282061298
H  H57  1  0.00300000  0.32800000  0.71860000  1.0 0.1472660948
H  H58  1  0.98330000  0.33370000  0.64950000  1.0 0.1014349919
H  H59  1  0.38810000  0.52720000  0.34270000  1.0 0.140549995
H  H60  1  0.29150000  0.51360000  0.22490000  1.0 0.1282061298
H  H61  1  0.39420000  0.35620000  0.33940000  1.0 0.1211465106
H  H62  1  0.37540000  0.13010000  0.34220000  1.0 0.1211465106
H  H63  1  0.29450000  0.13220000  0.23010000  1.0 0.1066226832
H  H64  1  0.30850000  0.34350000  0.22560000  1.0 0.1211465106
C  C1  1  0.88700000  0.19500000  0.01480000  1.0 0.0067745497
C  C2  1  0.90000000  0.19600000  0.97300000  1.0 -0.1021608717
C  C3  1  0.86400000  0.09500000  0.95160000  1.0 0.0538225186
C  C4  1  0.82200000  0.00000000  0.97430000  1.0 -0.1522595666
C  C5  1  0.82000000  0.99600000  0.01460000  1.0 -0.0822443354
C  C6  1  0.84900000  0.09400000  0.03390000  1.0 -0.12788635
C  C7  1  0.91000000  0.31000000  0.03800000  1.0 0.5223788072
C  C8  1  0.95600000  0.29300000  0.95150000  1.0 0.5223788072
C  C9  1  0.86700000  0.09600000  0.90800000  1.0 0.0620125879
C  C10  1  0.98800000  0.09600000  0.88690000  1.0 -0.1522595666
C  C11  1  0.98700000  0.09800000  0.84580000  1.0 0.0067745497
C  C12  1  0.87000000  0.08400000  0.82170000  1.0 -0.1379217605
C  C13  1  0.75900000  0.09100000  0.84100000  1.0 0.0067745497
C  C14  1  0.75800000  0.08800000  0.88330000  1.0 -0.1522595666
C  C15  1  0.12400000  0.09300000  0.82610000  1.0 0.5092657854
C  C16  1  0.62700000  0.08900000  0.81110000  1.0 0.5747719605
C  C17  1  0.97100000  0.40500000  0.16740000  1.0 0.022429162
C  C18  1  0.97900000  0.40900000  0.20830000  1.0 -0.2040918644
C  C19  1  0.99600000  0.51300000  0.22740000  1.0 0.1014349919
C  C20  1  0.99500000  0.60200000  0.20600000  1.0 -0.1693903755
C  C21  1  0.98300000  0.59800000  0.16340000  1.0 0.1066226832
C  C22  1  0.37900000  0.34220000  0.81400000  1.0 0.1576493655
C  C23  1  0.37700000  0.44500000  0.81660000  1.0 -0.1792661536
C  C24  1  0.36000000  0.53420000  0.78530000  1.0 0.0686697686
C  C25  1  0.32400000  0.45390000  0.74880000  1.0 -0.2518469549
C  C26  1  0.33800000  0.33550000  0.75060000  1.0 0.0788550482
C  C27  1  0.34900000  0.66930000  0.78210000  1.0 0.0686697686
C  C28  1  0.37500000  0.69280000  0.81800000  1.0 -0.1792661536
C  C29  1  0.36800000  0.83000000  0.81800000  1.0 0.0853621841
C  C30  1  0.32100000  0.82700000  0.75290000  1.0 0.0686697686
C  C31  1  0.32300000  0.70000000  0.74870000  1.0 -0.1522595666
C  C32  1  0.11300000  0.19500000  0.48520000  1.0 0.0067745497
C  C33  1  0.10000000  0.19600000  0.52700000  1.0 -0.1021608717
C  C34  1  0.13600000  0.09500000  0.54840000  1.0 0.0538225186
C  C35  1  0.17800000  0.00000000  0.52570000  1.0 -0.1522595666
C  C36  1  0.18000000  0.99600000  0.48540000  1.0 -0.0822443354
C  C37  1  0.15100000  0.09400000  0.46610000  1.0 -0.12788635
C  C38  1  0.09000000  0.31000000  0.46200000  1.0 0.5223788072
C  C39  1  0.04400000  0.29300000  0.54850000  1.0 0.5223788072
C  C40  1  0.13300000  0.09600000  0.59200000  1.0 0.0620125879
C  C41  1  0.01200000  0.09600000  0.61310000  1.0 -0.1522595666
C  C42  1  0.01300000  0.09800000  0.65420000  1.0 0.0067745497
C  C43  1  0.13000000  0.08400000  0.67830000  1.0 -0.1379217605
C  C44  1  0.24100000  0.09100000  0.65900000  1.0 0.0067745497
C  C45  1  0.24200000  0.08800000  0.61670000  1.0 -0.1522595666
C  C46  1  0.87600000  0.09300000  0.67390000  1.0 0.5092657854
C  C47  1  0.37300000  0.08900000  0.68890000  1.0 0.5747719605
C  C48  1  0.02900000  0.40500000  0.33260000  1.0 0.022429162
C  C49  1  0.02100000  0.40900000  0.29170000  1.0 -0.2040918644
C  C50  1  0.00400000  0.51300000  0.27260000  1.0 0.1014349919
C  C51  1  0.00500000  0.60200000  0.29400000  1.0 -0.1693903755
C  C52  1  0.01700000  0.59800000  0.33660000  1.0 0.1066226832
C  C53  1  0.62100000  0.34220000  0.68600000  1.0 0.1576493655
C  C54  1  0.62300000  0.44500000  0.68340000  1.0 -0.1792661536
C  C55  1  0.64000000  0.53420000  0.71470000  1.0 0.0686697686
C  C56  1  0.67600000  0.45390000  0.75120000  1.0 -0.2518469549
C  C57  1  0.66200000  0.33550000  0.74940000  1.0 0.0788550482
C  C58  1  0.65100000  0.66930000  0.71790000  1.0 0.0686697686
C  C59  1  0.62500000  0.69280000  0.68200000  1.0 -0.1792661536
C  C60  1  0.63200000  0.83000000  0.68200000  1.0 0.0853621841
C  C61  1  0.67900000  0.82700000  0.74710000  1.0 0.0686697686
C  C62  1  0.67700000  0.70000000  0.75130000  1.0 -0.1522595666
C  C63  1  0.11300000  0.80500000  0.98520000  1.0 0.0041402311
C  C64  1  0.10000000  0.80400000  0.02700000  1.0 -0.1021608717
C  C65  1  0.13600000  0.90500000  0.04840000  1.0 0.0538225186
C  C66  1  0.17800000  0.00000000  0.02570000  1.0 -0.1522595666
C  C67  1  0.18000000  0.00400000  0.98540000  1.0 -0.0822443354
C  C68  1  0.15100000  0.90600000  0.96610000  1.0 -0.12788635
C  C69  1  0.09000000  0.69000000  0.96200000  1.0 0.5223788072
C  C70  1  0.04400000  0.70700000  0.04850000  1.0 0.5223788072
C  C71  1  0.13300000  0.90400000  0.09200000  1.0 0.0620125879
C  C72  1  0.01200000  0.90400000  0.11310000  1.0 -0.1522595666
C  C73  1  0.01300000  0.90200000  0.15420000  1.0 0.0067745497
C  C74  1  0.13000000  0.91600000  0.17830000  1.0 -0.1379217605
C  C75  1  0.24100000  0.90900000  0.15900000  1.0 0.0067745497
C  C76  1  0.24200000  0.91200000  0.11670000  1.0 -0.1522595666
C  C77  1  0.87600000  0.90700000  0.17390000  1.0 0.5092657854
C  C78  1  0.37300000  0.91100000  0.18890000  1.0 0.5747719605
C  C79  1  0.02900000  0.59500000  0.83260000  1.0 0.022429162
C  C80  1  0.02100000  0.59100000  0.79170000  1.0 -0.2040918644
C  C81  1  0.00400000  0.48700000  0.77260000  1.0 0.1014349919
C  C82  1  0.00500000  0.39800000  0.79400000  1.0 -0.1693903755
C  C83  1  0.01700000  0.40200000  0.83660000  1.0 0.1066226832
C  C84  1  0.62100000  0.65780000  0.18600000  1.0 0.1576493655
C  C85  1  0.62300000  0.55500000  0.18340000  1.0 -0.1792661536
C  C86  1  0.64000000  0.46580000  0.21470000  1.0 0.0686697686
C  C87  1  0.67600000  0.54610000  0.25120000  1.0 -0.2518469549
C  C88  1  0.66200000  0.66450000  0.24940000  1.0 0.0788550482
C  C89  1  0.65100000  0.33070000  0.21790000  1.0 0.0686697686
C  C90  1  0.62500000  0.30720000  0.18200000  1.0 -0.1792661536
C  C91  1  0.63200000  0.17000000  0.18200000  1.0 0.0853621841
C  C92  1  0.67900000  0.17300000  0.24710000  1.0 0.0686697686
C  C93  1  0.67700000  0.30000000  0.25130000  1.0 -0.1522595666
C  C94  1  0.88700000  0.80500000  0.51480000  1.0 0.0067745497
C  C95  1  0.90000000  0.80400000  0.47300000  1.0 -0.1021608717
C  C96  1  0.86400000  0.90500000  0.45160000  1.0 0.0538225186
C  C97  1  0.82200000  0.00000000  0.47430000  1.0 -0.1522595666
C  C98  1  0.82000000  0.00400000  0.51460000  1.0 -0.0822443354
C  C99  1  0.84900000  0.90600000  0.53390000  1.0 -0.12788635
C  C100  1  0.91000000  0.69000000  0.53800000  1.0 0.5223788072
C  C101  1  0.95600000  0.70700000  0.45150000  1.0 0.5223788072
C  C102  1  0.86700000  0.90400000  0.40800000  1.0 0.0620125879
C  C103  1  0.98800000  0.90400000  0.38690000  1.0 -0.1522595666
C  C104  1  0.98700000  0.90200000  0.34580000  1.0 0.0067745497
C  C105  1  0.87000000  0.91600000  0.32170000  1.0 -0.1379217605
C  C106  1  0.75900000  0.90900000  0.34100000  1.0 0.0067745497
C  C107  1  0.75800000  0.91200000  0.38330000  1.0 -0.1522595666
C  C108  1  0.12400000  0.90700000  0.32610000  1.0 0.5092657854
C  C109  1  0.62700000  0.91100000  0.31110000  1.0 0.5747719605
C  C110  1  0.97100000  0.59500000  0.66740000  1.0 0.022429162
C  C111  1  0.97900000  0.59100000  0.70830000  1.0 -0.2040918644
C  C112  1  0.99600000  0.48700000  0.72740000  1.0 0.1014349919
C  C113  1  0.99500000  0.39800000  0.70600000  1.0 -0.1693903755
C  C114  1  0.98300000  0.40200000  0.66340000  1.0 0.1066226832
C  C115  1  0.37900000  0.65780000  0.31400000  1.0 0.1576493655
C  C116  1  0.37700000  0.55500000  0.31660000  1.0 -0.1792661536
C  C117  1  0.36000000  0.46580000  0.28530000  1.0 0.0686697686
C  C118  1  0.32400000  0.54610000  0.24880000  1.0 -0.2518469549
C  C119  1  0.33800000  0.66450000  0.25060000  1.0 0.0788550482
C  C120  1  0.34900000  0.33070000  0.28210000  1.0 0.0686697686
C  C121  1  0.37500000  0.30720000  0.31800000  1.0 -0.1792661536
C  C122  1  0.36800000  0.17000000  0.31800000  1.0 0.0853621841
C  C123  1  0.32100000  0.17300000  0.25290000  1.0 0.0686697686
C  C124  1  0.32300000  0.30000000  0.24870000  1.0 -0.1522595666
N  N1  1  0.35300000  0.88510000  0.78460000  1.0 -0.2402484189
N  N2  1  0.35300000  0.26300000  0.78430000  1.0 -0.3122338454
N  N3  1  0.97100000  0.50400000  0.14230000  1.0 -0.2518469549
N  N4  1  0.64700000  0.88510000  0.71540000  1.0 -0.2402484189
N  N5  1  0.64700000  0.26300000  0.71570000  1.0 -0.3122338454
N  N6  1  0.02900000  0.50400000  0.35770000  1.0 -0.2518469549
N  N7  1  0.64700000  0.11490000  0.21540000  1.0 -0.2402484189
N  N8  1  0.64700000  0.73700000  0.21570000  1.0 -0.3122338454
N  N9  1  0.02900000  0.49600000  0.85770000  1.0 -0.2518469549
N  N10  1  0.35300000  0.11490000  0.28460000  1.0 -0.2402484189
N  N11  1  0.35300000  0.73700000  0.28430000  1.0 -0.3122338454
N  N12  1  0.97100000  0.49600000  0.64230000  1.0 -0.2518469549
O  O1  1  0.71100000  0.53900000  0.08080000  1.0 -0.2262896697
O  O2  1  0.92200000  0.39900000  0.02090000  1.0 -0.4276783864
O  O3  1  0.90800000  0.30400000  0.07430000  1.0 -0.5019075523
O  O4  1  0.88600000  0.35600000  0.93630000  1.0 -0.3291422974
O  O5  1  0.07100000  0.30600000  0.95200000  1.0 -0.3992234345
O  O6  1  0.12500000  0.08240000  0.78880000  1.0 -0.5019075523
O  O7  1  0.22080000  0.09480000  0.84580000  1.0 -0.4435521613
O  O8  1  0.63020000  0.08110000  0.77430000  1.0 -0.5267670552
O  O9  1  0.52090000  0.08180000  0.83710000  1.0 -0.6161948244
O  O10  1  0.28900000  0.53900000  0.41920000  1.0 -0.2245608445
O  O11  1  0.07800000  0.39900000  0.47910000  1.0 -0.4276783864
O  O12  1  0.09200000  0.30400000  0.42570000  1.0 -0.5019075523
O  O13  1  0.11400000  0.35600000  0.56370000  1.0 -0.3291422974
O  O14  1  0.92900000  0.30600000  0.54800000  1.0 -0.3992234345
O  O15  1  0.87500000  0.08240000  0.71120000  1.0 -0.5019075523
O  O16  1  0.77920000  0.09480000  0.65420000  1.0 -0.4435521613
O  O17  1  0.36980000  0.08110000  0.72570000  1.0 -0.5267670552
O  O18  1  0.47910000  0.08180000  0.66290000  1.0 -0.6161948244
O  O19  1  0.28900000  0.46100000  0.91920000  1.0 -0.2245608445
O  O20  1  0.07800000  0.60100000  0.97910000  1.0 -0.4276783864
O  O21  1  0.09200000  0.69600000  0.92570000  1.0 -0.5019075523
O  O22  1  0.11400000  0.64400000  0.06370000  1.0 -0.3291422974
O  O23  1  0.92900000  0.69400000  0.04800000  1.0 -0.3992234345
O  O24  1  0.87500000  0.91760000  0.21120000  1.0 -0.5019075523
O  O25  1  0.77920000  0.90520000  0.15420000  1.0 -0.4435521613
O  O26  1  0.36980000  0.91890000  0.22570000  1.0 -0.5267670552
O  O27  1  0.47910000  0.91820000  0.16290000  1.0 -0.6161948244
O  O28  1  0.71100000  0.46100000  0.58080000  1.0 -0.2402484189
O  O29  1  0.92200000  0.60100000  0.52090000  1.0 -0.4276783864
O  O30  1  0.90800000  0.69600000  0.57430000  1.0 -0.5019075523
O  O31  1  0.88600000  0.64400000  0.43630000  1.0 -0.3291422974
O  O32  1  0.07100000  0.69400000  0.45200000  1.0 -0.3992234345
O  O33  1  0.12500000  0.91760000  0.28880000  1.0 -0.5019075523
O  O34  1  0.22080000  0.90520000  0.34580000  1.0 -0.4435521613
O  O35  1  0.63020000  0.91890000  0.27430000  1.0 -0.5267670552
O  O36  1  0.52090000  0.91820000  0.33710000  1.0 -0.6161948244
