# DDEC6 charges by PACMAN v1.1 (https://github.com/mtap-research/PACMAN-charge/)
data_YAYRIC_ASR_pacman
_symmetry_space_group_name_H-M   'P 1'
_cell_length_a   9.58790000
_cell_length_b   14.57700000
_cell_length_c   14.81100000
_cell_angle_alpha   110.03600000
_cell_angle_beta   94.17200000
_cell_angle_gamma   89.31100000
_symmetry_Int_Tables_number   1
_chemical_formula_structural   CdH10(C9O2)2
_chemical_formula_sum   'Cd3 H30 C54 O12'
_cell_volume   1939.40685028
_cell_formula_units_Z   3
loop_
 _symmetry_equiv_pos_site_id
 _symmetry_equiv_pos_as_xyz
  1  'x, y, z'
loop_
 _atom_site_type_symbol
 _atom_site_label
 _atom_site_symmetry_multiplicity
 _atom_site_fract_x
 _atom_site_fract_y
 _atom_site_fract_z
 _atom_site_occupancy
 _atom_site_charge
Cd  Cd1  1  0.40133000  0.38815000  0.67771000  1.0 1.0362930223
Cd  Cd2  1  0.59867000  0.61185000  0.32229000  1.0 1.0362930223
Cd  Cd3  1  0.50000000  0.50000000  0.50000000  1.0 1.0742748901
H  H1  1  0.79460000  0.38200000  0.89880000  1.0 0.1182586583
H  H2  1  0.96660000  0.31260000  0.97040000  1.0 0.1182586583
H  H3  1  0.84130000  0.04650000  0.79060000  1.0 0.1120993592
H  H4  1  0.67330000  0.11770000  0.71640000  1.0 0.1182586583
H  H5  1  0.02210000  0.22600000  0.07050000  1.0 0.1120993592
H  H6  1  0.29870000  0.01350000  0.05970000  1.0 0.1182586583
H  H7  1  0.06850000  0.00880000  0.81970000  1.0 0.1120993592
H  H8  1  0.28080000  0.84640000  0.98610000  1.0 0.1182586583
H  H9  1  0.32920000  0.68700000  0.89350000  1.0 0.1272694394
H  H10  1  0.29440000  0.75920000  0.65490000  1.0 0.1272694394
H  H11  1  0.23720000  0.91620000  0.74510000  1.0 0.1182586583
H  H12  1  0.00130000  0.20630000  0.22280000  1.0 0.1120993592
H  H13  1  0.05050000  0.28220000  0.38750000  1.0 0.1272694394
H  H14  1  0.46090000  0.24390000  0.34940000  1.0 0.1120993592
H  H15  1  0.40970000  0.16010000  0.18670000  1.0 0.1182586583
H  H16  1  0.20540000  0.61800000  0.10120000  1.0 0.1182586583
H  H17  1  0.03340000  0.68740000  0.02960000  1.0 0.1182586583
H  H18  1  0.15870000  0.95350000  0.20940000  1.0 0.1120993592
H  H19  1  0.32670000  0.88230000  0.28360000  1.0 0.1182586583
H  H20  1  0.97790000  0.77400000  0.92950000  1.0 0.1120993592
H  H21  1  0.70130000  0.98650000  0.94030000  1.0 0.1182586583
H  H22  1  0.93150000  0.99120000  0.18030000  1.0 0.1120993592
H  H23  1  0.71920000  0.15360000  0.01390000  1.0 0.1182586583
H  H24  1  0.67080000  0.31300000  0.10650000  1.0 0.1272694394
H  H25  1  0.70560000  0.24080000  0.34510000  1.0 0.1272694394
H  H26  1  0.76280000  0.08380000  0.25490000  1.0 0.1182586583
H  H27  1  0.99870000  0.79370000  0.77720000  1.0 0.1120993592
H  H28  1  0.94950000  0.71780000  0.61250000  1.0 0.1272694394
H  H29  1  0.53910000  0.75610000  0.65060000  1.0 0.1120993592
H  H30  1  0.59030000  0.83990000  0.81330000  1.0 0.1182586583
C  C1  1  0.60740000  0.30470000  0.75310000  1.0 0.5416621492
C  C2  1  0.71730000  0.25770000  0.79920000  1.0 -0.022788627
C  C3  1  0.80510000  0.31460000  0.87610000  1.0 -0.0818352364
C  C4  1  0.90770000  0.27310000  0.91960000  1.0 -0.1624122448
C  C5  1  0.92320000  0.17120000  0.88700000  1.0 0.0720651485
C  C6  1  0.83360000  0.11410000  0.81180000  1.0 -0.1624122448
C  C7  1  0.73180000  0.15690000  0.76750000  1.0 -0.091722656
C  C8  1  0.02890000  0.12570000  0.93660000  1.0 0.0820109124
C  C9  1  0.06520000  0.16870000  0.03530000  1.0 -0.1983292177
C  C10  1  0.16520000  0.12680000  0.08180000  1.0 0.0820109124
C  C11  1  0.23000000  0.04060000  0.02930000  1.0 -0.1914077475
C  C12  1  0.19210000  0.99490000  0.93090000  1.0 0.0820109124
C  C13  1  0.09270000  0.03840000  0.88530000  1.0 -0.1983292177
C  C14  1  0.24870000  0.89770000  0.87540000  1.0 0.0720651485
C  C15  1  0.28050000  0.82880000  0.91950000  1.0 -0.1624122448
C  C16  1  0.31200000  0.73330000  0.86380000  1.0 -0.091722656
C  C17  1  0.31810000  0.70630000  0.76420000  1.0 -0.0408898201
C  C18  1  0.29010000  0.77610000  0.72120000  1.0 -0.091722656
C  C19  1  0.25570000  0.87050000  0.77520000  1.0 -0.1624122448
C  C20  1  0.35210000  0.60350000  0.70540000  1.0 0.5942860767
C  C21  1  0.20010000  0.17440000  0.18790000  1.0 0.0720651485
C  C22  1  0.09360000  0.21250000  0.24850000  1.0 -0.1436698735
C  C23  1  0.12300000  0.25980000  0.34730000  1.0 -0.091722656
C  C24  1  0.26110000  0.27310000  0.38530000  1.0 -0.022788627
C  C25  1  0.36830000  0.23550000  0.32430000  1.0 -0.0972940326
C  C26  1  0.33770000  0.18580000  0.22640000  1.0 -0.1436698735
C  C27  1  0.29690000  0.32390000  0.49050000  1.0 0.5788121745
C  C28  1  0.39260000  0.69530000  0.24690000  1.0 0.5416621492
C  C29  1  0.28270000  0.74230000  0.20080000  1.0 -0.0259488635
C  C30  1  0.19490000  0.68540000  0.12390000  1.0 -0.0818352364
C  C31  1  0.09230000  0.72690000  0.08040000  1.0 -0.1624122448
C  C32  1  0.07680000  0.82880000  0.11300000  1.0 0.0720651485
C  C33  1  0.16640000  0.88590000  0.18820000  1.0 -0.1624122448
C  C34  1  0.26820000  0.84310000  0.23250000  1.0 -0.091722656
C  C35  1  0.97110000  0.87430000  0.06340000  1.0 0.0820109124
C  C36  1  0.93480000  0.83130000  0.96470000  1.0 -0.1983292177
C  C37  1  0.83480000  0.87320000  0.91820000  1.0 0.0820109124
C  C38  1  0.77000000  0.95940000  0.97070000  1.0 -0.1914077475
C  C39  1  0.80790000  0.00510000  0.06910000  1.0 0.0820109124
C  C40  1  0.90730000  0.96160000  0.11470000  1.0 -0.1983292177
C  C41  1  0.75130000  0.10230000  0.12460000  1.0 0.0720651485
C  C42  1  0.71950000  0.17120000  0.08050000  1.0 -0.1624122448
C  C43  1  0.68800000  0.26670000  0.13620000  1.0 -0.091722656
C  C44  1  0.68190000  0.29370000  0.23580000  1.0 -0.0408898201
C  C45  1  0.70990000  0.22390000  0.27880000  1.0 -0.091722656
C  C46  1  0.74430000  0.12950000  0.22480000  1.0 -0.1624122448
C  C47  1  0.64790000  0.39650000  0.29460000  1.0 0.5942860767
C  C48  1  0.79990000  0.82560000  0.81210000  1.0 0.0720651485
C  C49  1  0.90640000  0.78750000  0.75150000  1.0 -0.1436698735
C  C50  1  0.87700000  0.74020000  0.65270000  1.0 -0.091722656
C  C51  1  0.73890000  0.72690000  0.61470000  1.0 -0.022788627
C  C52  1  0.63170000  0.76450000  0.67570000  1.0 -0.0972940326
C  C53  1  0.66230000  0.81420000  0.77360000  1.0 -0.1436698735
C  C54  1  0.70310000  0.67610000  0.50950000  1.0 0.5788121745
O  O1  1  0.54320000  0.25430000  0.67500000  1.0 -0.555365093
O  O2  1  0.58150000  0.39330000  0.79450000  1.0 -0.5469438359
O  O3  1  0.36530000  0.58560000  0.61744000  1.0 -0.5846264437
O  O4  1  0.36180000  0.54290000  0.74850000  1.0 -0.5469438359
O  O5  1  0.21030000  0.32970000  0.55030000  1.0 -0.5182315186
O  O6  1  0.42290000  0.35801000  0.51608000  1.0 -0.6093020513
O  O7  1  0.45680000  0.74570000  0.32500000  1.0 -0.555365093
O  O8  1  0.41850000  0.60670000  0.20550000  1.0 -0.5469438359
O  O9  1  0.63470000  0.41440000  0.38256000  1.0 -0.5846264437
O  O10  1  0.63820000  0.45710000  0.25150000  1.0 -0.5469438359
O  O11  1  0.78970000  0.67030000  0.44970000  1.0 -0.5182315186
O  O12  1  0.57710000  0.64199000  0.48392000  1.0 -0.6093020513
