# DDEC6 charges by PACMAN v1.1 (https://github.com/mtap-research/PACMAN-charge/)
data_YAYROI_ASR_pacman
_symmetry_space_group_name_H-M   'P 1'
_cell_length_a   17.19530000
_cell_length_b   17.19530000
_cell_length_c   15.46880000
_cell_angle_alpha   83.49560000
_cell_angle_beta   96.50440000
_cell_angle_gamma   120.02600000
_symmetry_Int_Tables_number   1
_chemical_formula_structural   Cd3H52C68(NO9)2
_chemical_formula_sum   'Cd6 H104 C136 N4 O36'
_cell_volume   3925.96524797
_cell_formula_units_Z   2
loop_
 _symmetry_equiv_pos_site_id
 _symmetry_equiv_pos_as_xyz
  1  'x, y, z'
loop_
 _atom_site_type_symbol
 _atom_site_label
 _atom_site_symmetry_multiplicity
 _atom_site_fract_x
 _atom_site_fract_y
 _atom_site_fract_z
 _atom_site_occupancy
 _atom_site_charge
Cd  Cd1  1  0.66914000  0.02674000  0.16932000  1.0 0.8658684805
Cd  Cd2  1  0.33086000  0.97326000  0.83068000  1.0 0.8658684805
Cd  Cd3  1  0.50000000  0.00000000  0.00000000  1.0 1.0677707657
Cd  Cd4  1  0.02674000  0.66914000  0.33068000  1.0 0.8658684805
Cd  Cd5  1  0.97326000  0.33086000  0.66932000  1.0 0.8658684805
Cd  Cd6  1  0.00000000  0.50000000  0.50000000  1.0 1.0677707657
H  H1  1  0.25620000  0.20120000  0.14720000  1.0 0.1027818117
H  H2  1  0.24770000  0.43330000  0.12790000  1.0 0.1027818117
H  H3  1  0.48550000  0.44030000  0.11540000  1.0 0.1120522127
H  H4  1  0.40830000  0.07130000  0.09940000  1.0 0.1120522127
H  H5  1  0.33310000  0.15370000  0.07990000  1.0 0.1120522127
H  H6  1  0.54180000  0.35640000  0.20680000  1.0 0.1120522127
H  H7  1  0.61850000  0.27470000  0.22620000  1.0 0.1212162886
H  H8  1  0.97390000  0.27410000  0.21610000  1.0 0.1120522127
H  H9  1  0.13050000  0.35130000  0.21330000  1.0 0.1027818117
H  H10  1  0.11920000  0.14240000  0.10870000  1.0 0.0918395574
H  H11  1  0.96370000  0.06250000  0.11450000  1.0 0.0918395574
H  H12  1  0.60360000  0.73780000  0.15400000  1.0 0.1212162886
H  H13  1  0.53980000  0.58160000  0.16720000  1.0 0.1120522127
H  H14  1  0.30980000  0.55640000  0.04370000  1.0 0.1120522127
H  H15  1  0.37390000  0.71230000  0.03020000  1.0 0.1120522127
H  H16  1  0.70060000  0.18580000  0.97140000  1.0 0.0918395574
H  H17  1  0.79680000  0.06340000  0.87470000  1.0 0.1120522127
H  H18  1  0.87290000  0.10430000  0.95230000  1.0 0.1120522127
H  H19  1  0.77190000  0.03090000  0.97380000  1.0 0.1307368516
H  H20  1  0.83150000  0.28690000  0.92160000  1.0 0.1307368516
H  H21  1  0.91120000  0.26340000  0.93430000  1.0 0.1212162886
H  H22  1  0.85250000  0.24810000  0.84340000  1.0 0.1355428263
H  H23  1  0.94780000  0.26660000  0.08770000  1.0 0.1027818117
H  H24  1  0.10080000  0.34380000  0.06370000  1.0 0.1027818117
H  H25  1  0.12830000  0.14410000  0.19990000  1.0 0.084098754
H  H26  1  0.97600000  0.06660000  0.22400000  1.0 0.0918395574
H  H27  1  0.74380000  0.79880000  0.85280000  1.0 0.1027818117
H  H28  1  0.75230000  0.56670000  0.87210000  1.0 0.1027818117
H  H29  1  0.51450000  0.55970000  0.88460000  1.0 0.1120522127
H  H30  1  0.59170000  0.92870000  0.90060000  1.0 0.1120522127
H  H31  1  0.66690000  0.84630000  0.92010000  1.0 0.1120522127
H  H32  1  0.45820000  0.64360000  0.79320000  1.0 0.1120522127
H  H33  1  0.38150000  0.72530000  0.77380000  1.0 0.1212162886
H  H34  1  0.02610000  0.72590000  0.78390000  1.0 0.1120522127
H  H35  1  0.86950000  0.64870000  0.78670000  1.0 0.1027818117
H  H36  1  0.88080000  0.85760000  0.89130000  1.0 0.0918395574
H  H37  1  0.03630000  0.93750000  0.88550000  1.0 0.0918395574
H  H38  1  0.39640000  0.26220000  0.84600000  1.0 0.1212162886
H  H39  1  0.46020000  0.41840000  0.83280000  1.0 0.1120522127
H  H40  1  0.69020000  0.44360000  0.95630000  1.0 0.1120522127
H  H41  1  0.62610000  0.28770000  0.96980000  1.0 0.1120522127
H  H42  1  0.29940000  0.81420000  0.02860000  1.0 0.0918395574
H  H43  1  0.20320000  0.93660000  0.12530000  1.0 0.1120522127
H  H44  1  0.12710000  0.89570000  0.04770000  1.0 0.1120522127
H  H45  1  0.22810000  0.96910000  0.02620000  1.0 0.1307368516
H  H46  1  0.16850000  0.71310000  0.07840000  1.0 0.1307368516
H  H47  1  0.08880000  0.73660000  0.06570000  1.0 0.1212162886
H  H48  1  0.14750000  0.75190000  0.15660000  1.0 0.1355428263
H  H49  1  0.05220000  0.73340000  0.91230000  1.0 0.1027818117
H  H50  1  0.89920000  0.65620000  0.93630000  1.0 0.1027818117
H  H51  1  0.87170000  0.85590000  0.80010000  1.0 0.084098754
H  H52  1  0.02400000  0.93340000  0.77600000  1.0 0.0918395574
H  H53  1  0.20120000  0.25620000  0.35280000  1.0 0.1027818117
H  H54  1  0.43330000  0.24770000  0.37210000  1.0 0.1027818117
H  H55  1  0.44030000  0.48550000  0.38460000  1.0 0.1120522127
H  H56  1  0.07130000  0.40830000  0.40060000  1.0 0.1120522127
H  H57  1  0.15370000  0.33310000  0.42010000  1.0 0.1120522127
H  H58  1  0.35640000  0.54180000  0.29320000  1.0 0.1120522127
H  H59  1  0.27470000  0.61850000  0.27380000  1.0 0.1212162886
H  H60  1  0.27410000  0.97390000  0.28390000  1.0 0.1120522127
H  H61  1  0.35130000  0.13050000  0.28670000  1.0 0.1027818117
H  H62  1  0.14240000  0.11920000  0.39130000  1.0 0.0918395574
H  H63  1  0.06250000  0.96370000  0.38550000  1.0 0.0918395574
H  H64  1  0.73780000  0.60360000  0.34600000  1.0 0.1212162886
H  H65  1  0.58160000  0.53980000  0.33280000  1.0 0.1120522127
H  H66  1  0.55640000  0.30980000  0.45630000  1.0 0.1120522127
H  H67  1  0.71230000  0.37390000  0.46980000  1.0 0.1120522127
H  H68  1  0.18580000  0.70060000  0.52860000  1.0 0.0918395574
H  H69  1  0.06340000  0.79680000  0.62530000  1.0 0.1120522127
H  H70  1  0.10430000  0.87290000  0.54770000  1.0 0.1120522127
H  H71  1  0.03090000  0.77190000  0.52620000  1.0 0.1307368516
H  H72  1  0.28690000  0.83150000  0.57840000  1.0 0.1307368516
H  H73  1  0.26340000  0.91120000  0.56570000  1.0 0.1212162886
H  H74  1  0.24810000  0.85250000  0.65660000  1.0 0.1355428263
H  H75  1  0.26660000  0.94780000  0.41230000  1.0 0.1027818117
H  H76  1  0.34380000  0.10080000  0.43630000  1.0 0.1027818117
H  H77  1  0.14410000  0.12830000  0.30010000  1.0 0.084098754
H  H78  1  0.06660000  0.97600000  0.27600000  1.0 0.0918395574
H  H79  1  0.79880000  0.74380000  0.64720000  1.0 0.1027818117
H  H80  1  0.56670000  0.75230000  0.62790000  1.0 0.1027818117
H  H81  1  0.55970000  0.51450000  0.61540000  1.0 0.1120522127
H  H82  1  0.92870000  0.59170000  0.59940000  1.0 0.1120522127
H  H83  1  0.84630000  0.66690000  0.57990000  1.0 0.1120522127
H  H84  1  0.64360000  0.45820000  0.70680000  1.0 0.1120522127
H  H85  1  0.72530000  0.38150000  0.72620000  1.0 0.1212162886
H  H86  1  0.72590000  0.02610000  0.71610000  1.0 0.1120522127
H  H87  1  0.64870000  0.86950000  0.71330000  1.0 0.1027818117
H  H88  1  0.85760000  0.88080000  0.60870000  1.0 0.0918395574
H  H89  1  0.93750000  0.03630000  0.61450000  1.0 0.0918395574
H  H90  1  0.26220000  0.39640000  0.65400000  1.0 0.1212162886
H  H91  1  0.41840000  0.46020000  0.66720000  1.0 0.1120522127
H  H92  1  0.44360000  0.69020000  0.54370000  1.0 0.1120522127
H  H93  1  0.28770000  0.62610000  0.53020000  1.0 0.1120522127
H  H94  1  0.81420000  0.29940000  0.47140000  1.0 0.0918395574
H  H95  1  0.93660000  0.20320000  0.37470000  1.0 0.1120522127
H  H96  1  0.89570000  0.12710000  0.45230000  1.0 0.1120522127
H  H97  1  0.96910000  0.22810000  0.47380000  1.0 0.1307368516
H  H98  1  0.71310000  0.16850000  0.42160000  1.0 0.1307368516
H  H99  1  0.73660000  0.08880000  0.43430000  1.0 0.1212162886
H  H100  1  0.75190000  0.14750000  0.34340000  1.0 0.1355428263
H  H101  1  0.73340000  0.05220000  0.58770000  1.0 0.1027818117
H  H102  1  0.65620000  0.89920000  0.56370000  1.0 0.1027818117
H  H103  1  0.85590000  0.87170000  0.69990000  1.0 0.084098754
H  H104  1  0.93340000  0.02400000  0.72400000  1.0 0.0918395574
C  C1  1  0.37889000  0.31259000  0.13390000  1.0 0.0918395574
C  C2  1  0.28595000  0.26505000  0.14030000  1.0 -0.2434353143
C  C3  1  0.23548000  0.30846000  0.13700000  1.0 0.0603136882
C  C4  1  0.28084000  0.40260000  0.12800000  1.0 -0.2088308022
C  C5  1  0.37361000  0.45257000  0.11900000  1.0 0.0918395574
C  C6  1  0.42240000  0.40712000  0.12180000  1.0 -0.1988267959
C  C7  1  0.52062000  0.16470000  0.16540000  1.0 -0.0299588074
C  C8  1  0.43558000  0.12926000  0.12150000  1.0 -0.110107562
C  C9  1  0.39085000  0.17805000  0.11020000  1.0 -0.1480770693
C  C10  1  0.43021000  0.26317000  0.14300000  1.0 0.0719403118
C  C11  1  0.51447000  0.29819000  0.18520000  1.0 -0.1480770693
C  C12  1  0.56033000  0.24971000  0.19690000  1.0 -0.100078564
C  C13  1  0.57147000  0.11433000  0.17480000  1.0 0.5615172847
C  C14  1  0.94970000  0.15940000  0.16280000  1.0 -0.0436618804
C  C15  1  0.00270000  0.24710000  0.19260000  1.0 -0.0786072374
C  C16  1  0.09549000  0.29471000  0.18850000  1.0 -0.1215733862
C  C17  1  0.08920000  0.17100000  0.12670000  1.0 -0.0704644048
C  C18  1  0.99630000  0.12250000  0.13220000  1.0 -0.0436618804
C  C19  1  0.13669000  0.25703000  0.14650000  1.0 0.0449728682
C  C20  1  0.85003000  0.10913000  0.16920000  1.0 0.3732211604
C  C21  1  0.49377000  0.74035000  0.09280000  1.0 -0.0299588074
C  C22  1  0.54331000  0.70101000  0.13210000  1.0 -0.100078564
C  C23  1  0.50527000  0.60777000  0.13970000  1.0 -0.1586015275
C  C24  1  0.41789000  0.55259000  0.10780000  1.0 0.0719403118
C  C25  1  0.36969000  0.59289000  0.06680000  1.0 -0.1586015275
C  C26  1  0.40776000  0.68598000  0.05910000  1.0 -0.100078564
C  C27  1  0.53027000  0.84063000  0.08848000  1.0 0.5818450912
C  C28  1  0.71266000  0.13754000  0.97160000  1.0 0.2486437275
C  C29  1  0.80920000  0.08240000  0.93450000  1.0 -0.3527113557
C  C30  1  0.85090000  0.24570000  0.90680000  1.0 -0.3527113557
C  C31  1  0.98570000  0.24350000  0.11260000  1.0 -0.110107562
C  C32  1  0.07640000  0.29020000  0.10090000  1.0 -0.0704644048
C  C33  1  0.09390000  0.17290000  0.18170000  1.0 -0.0615105038
C  C34  1  0.00150000  0.12430000  0.19380000  1.0 -0.0786072374
C  C35  1  0.62111000  0.68741000  0.86610000  1.0 0.0918395574
C  C36  1  0.71405000  0.73495000  0.85970000  1.0 -0.2434353143
C  C37  1  0.76452000  0.69154000  0.86300000  1.0 0.0603136882
C  C38  1  0.71916000  0.59740000  0.87200000  1.0 -0.2088308022
C  C39  1  0.62639000  0.54743000  0.88100000  1.0 0.0918395574
C  C40  1  0.57760000  0.59288000  0.87820000  1.0 -0.1988267959
C  C41  1  0.47938000  0.83530000  0.83460000  1.0 -0.0299588074
C  C42  1  0.56442000  0.87074000  0.87850000  1.0 -0.110107562
C  C43  1  0.60915000  0.82195000  0.88980000  1.0 -0.1480770693
C  C44  1  0.56979000  0.73683000  0.85700000  1.0 0.0719403118
C  C45  1  0.48553000  0.70181000  0.81480000  1.0 -0.1480770693
C  C46  1  0.43967000  0.75029000  0.80310000  1.0 -0.100078564
C  C47  1  0.42853000  0.88567000  0.82520000  1.0 0.5615172847
C  C48  1  0.05030000  0.84060000  0.83720000  1.0 -0.0436618804
C  C49  1  0.99730000  0.75290000  0.80740000  1.0 -0.0786072374
C  C50  1  0.90451000  0.70529000  0.81150000  1.0 -0.1215733862
C  C51  1  0.91080000  0.82900000  0.87330000  1.0 -0.0704644048
C  C52  1  0.00370000  0.87750000  0.86780000  1.0 -0.0436618804
C  C53  1  0.86331000  0.74297000  0.85350000  1.0 0.0449728682
C  C54  1  0.14997000  0.89087000  0.83080000  1.0 0.3732211604
C  C55  1  0.50623000  0.25965000  0.90720000  1.0 -0.0299588074
C  C56  1  0.45669000  0.29899000  0.86790000  1.0 -0.100078564
C  C57  1  0.49473000  0.39223000  0.86030000  1.0 -0.1586015275
C  C58  1  0.58211000  0.44741000  0.89220000  1.0 0.0719403118
C  C59  1  0.63031000  0.40711000  0.93320000  1.0 -0.1586015275
C  C60  1  0.59224000  0.31402000  0.94090000  1.0 -0.100078564
C  C61  1  0.46973000  0.15937000  0.91152000  1.0 0.5818450912
C  C62  1  0.28734000  0.86246000  0.02840000  1.0 0.2486437275
C  C63  1  0.19080000  0.91760000  0.06550000  1.0 -0.3527113557
C  C64  1  0.14910000  0.75430000  0.09320000  1.0 -0.3527113557
C  C65  1  0.01430000  0.75650000  0.88740000  1.0 -0.110107562
C  C66  1  0.92360000  0.70980000  0.89910000  1.0 -0.0704644048
C  C67  1  0.90610000  0.82710000  0.81830000  1.0 -0.0615105038
C  C68  1  0.99850000  0.87570000  0.80620000  1.0 -0.0786072374
C  C69  1  0.31259000  0.37889000  0.36610000  1.0 0.0918395574
C  C70  1  0.26505000  0.28595000  0.35970000  1.0 -0.2434353143
C  C71  1  0.30846000  0.23548000  0.36300000  1.0 0.0603136882
C  C72  1  0.40260000  0.28084000  0.37200000  1.0 -0.2088308022
C  C73  1  0.45257000  0.37361000  0.38100000  1.0 0.0918395574
C  C74  1  0.40712000  0.42240000  0.37820000  1.0 -0.1988267959
C  C75  1  0.16470000  0.52062000  0.33460000  1.0 -0.0299588074
C  C76  1  0.12926000  0.43558000  0.37850000  1.0 -0.110107562
C  C77  1  0.17805000  0.39085000  0.38980000  1.0 -0.1480770693
C  C78  1  0.26317000  0.43021000  0.35700000  1.0 0.0719403118
C  C79  1  0.29819000  0.51447000  0.31480000  1.0 -0.1480770693
C  C80  1  0.24971000  0.56033000  0.30310000  1.0 -0.100078564
C  C81  1  0.11433000  0.57147000  0.32520000  1.0 0.5615172847
C  C82  1  0.15940000  0.94970000  0.33720000  1.0 -0.0436618804
C  C83  1  0.24710000  0.00270000  0.30740000  1.0 -0.0786072374
C  C84  1  0.29471000  0.09549000  0.31150000  1.0 -0.1215733862
C  C85  1  0.17100000  0.08920000  0.37330000  1.0 -0.0704644048
C  C86  1  0.12250000  0.99630000  0.36780000  1.0 -0.0460599572
C  C87  1  0.25703000  0.13669000  0.35350000  1.0 0.0449728682
C  C88  1  0.10913000  0.85003000  0.33080000  1.0 0.3732211604
C  C89  1  0.74035000  0.49377000  0.40720000  1.0 -0.0299588074
C  C90  1  0.70101000  0.54331000  0.36790000  1.0 -0.100078564
C  C91  1  0.60777000  0.50527000  0.36030000  1.0 -0.1586015275
C  C92  1  0.55259000  0.41789000  0.39220000  1.0 0.0719403118
C  C93  1  0.59289000  0.36969000  0.43320000  1.0 -0.1586015275
C  C94  1  0.68598000  0.40776000  0.44090000  1.0 -0.100078564
C  C95  1  0.84063000  0.53027000  0.41152000  1.0 0.5818450912
C  C96  1  0.13754000  0.71266000  0.52840000  1.0 0.2486437275
C  C97  1  0.08240000  0.80920000  0.56550000  1.0 -0.3527113557
C  C98  1  0.24570000  0.85090000  0.59320000  1.0 -0.3527113557
C  C99  1  0.24350000  0.98570000  0.38740000  1.0 -0.110107562
C  C100  1  0.29020000  0.07640000  0.39910000  1.0 -0.0704644048
C  C101  1  0.17290000  0.09390000  0.31830000  1.0 -0.0615105038
C  C102  1  0.12430000  0.00150000  0.30620000  1.0 -0.0786072374
C  C103  1  0.68741000  0.62111000  0.63390000  1.0 0.0918395574
C  C104  1  0.73495000  0.71405000  0.64030000  1.0 -0.2434353143
C  C105  1  0.69154000  0.76452000  0.63700000  1.0 0.0603136882
C  C106  1  0.59740000  0.71916000  0.62800000  1.0 -0.2088308022
C  C107  1  0.54743000  0.62639000  0.61900000  1.0 0.0918395574
C  C108  1  0.59288000  0.57760000  0.62180000  1.0 -0.1988267959
C  C109  1  0.83530000  0.47938000  0.66540000  1.0 -0.0299588074
C  C110  1  0.87074000  0.56442000  0.62150000  1.0 -0.110107562
C  C111  1  0.82195000  0.60915000  0.61020000  1.0 -0.1480770693
C  C112  1  0.73683000  0.56979000  0.64300000  1.0 0.0719403118
C  C113  1  0.70181000  0.48553000  0.68520000  1.0 -0.1480770693
C  C114  1  0.75029000  0.43967000  0.69690000  1.0 -0.100078564
C  C115  1  0.88567000  0.42853000  0.67480000  1.0 0.5615172847
C  C116  1  0.84060000  0.05030000  0.66280000  1.0 -0.0436618804
C  C117  1  0.75290000  0.99730000  0.69260000  1.0 -0.0786072374
C  C118  1  0.70529000  0.90451000  0.68850000  1.0 -0.1215733862
C  C119  1  0.82900000  0.91080000  0.62670000  1.0 -0.0704644048
C  C120  1  0.87750000  0.00370000  0.63220000  1.0 -0.0436618804
C  C121  1  0.74297000  0.86331000  0.64650000  1.0 0.0449728682
C  C122  1  0.89087000  0.14997000  0.66920000  1.0 0.3732211604
C  C123  1  0.25965000  0.50623000  0.59280000  1.0 -0.0299588074
C  C124  1  0.29899000  0.45669000  0.63210000  1.0 -0.100078564
C  C125  1  0.39223000  0.49473000  0.63970000  1.0 -0.1586015275
C  C126  1  0.44741000  0.58211000  0.60780000  1.0 0.0719403118
C  C127  1  0.40711000  0.63031000  0.56680000  1.0 -0.1586015275
C  C128  1  0.31402000  0.59224000  0.55910000  1.0 -0.100078564
C  C129  1  0.15937000  0.46973000  0.58848000  1.0 0.5818450912
C  C130  1  0.86246000  0.28734000  0.47160000  1.0 0.2486437275
C  C131  1  0.91760000  0.19080000  0.43450000  1.0 -0.3527113557
C  C132  1  0.75430000  0.14910000  0.40680000  1.0 -0.3527113557
C  C133  1  0.75650000  0.01430000  0.61260000  1.0 -0.110107562
C  C134  1  0.70980000  0.92360000  0.60090000  1.0 -0.0704644048
C  C135  1  0.82710000  0.90610000  0.68170000  1.0 -0.0615105038
C  C136  1  0.87570000  0.99850000  0.69380000  1.0 -0.0786072374
N  N1  1  0.78809000  0.15431000  0.93840000  1.0 -0.0084482683
N  N2  1  0.21191000  0.84569000  0.06160000  1.0 -0.0084482683
N  N3  1  0.15431000  0.78809000  0.56160000  1.0 -0.0084482683
N  N4  1  0.84569000  0.21191000  0.43840000  1.0 -0.0084482683
O  O1  1  0.64629000  0.14517000  0.21490000  1.0 -0.5223214165
O  O2  1  0.53605000  0.03789000  0.14103000  1.0 -0.5953644649
O  O3  1  0.47879000  0.86773000  0.05170000  1.0 -0.5747468904
O  O4  1  0.60748000  0.88822000  0.12278000  1.0 -0.5434335009
O  O5  1  0.65739000  0.06253000  0.00264000  1.0 -0.4938212321
O  O6  1  0.81300000  0.03320000  0.20640000  1.0 -0.1586015275
O  O7  1  0.80300000  0.14320000  0.14070000  1.0 -0.1215733862
O  O8  1  0.80730000  0.03050000  0.14530000  1.0 -0.1586015275
O  O9  1  0.81450000  0.14930000  0.19250000  1.0 -0.1480770693
O  O10  1  0.35371000  0.85483000  0.78510000  1.0 -0.5223214165
O  O11  1  0.46395000  0.96211000  0.85897000  1.0 -0.5953644649
O  O12  1  0.52121000  0.13227000  0.94830000  1.0 -0.5747468904
O  O13  1  0.39252000  0.11178000  0.87722000  1.0 -0.5434335009
O  O14  1  0.34261000  0.93747000  0.99736000  1.0 -0.4938212321
O  O15  1  0.18700000  0.96680000  0.79360000  1.0 -0.1586015275
O  O16  1  0.19700000  0.85680000  0.85930000  1.0 -0.1215733862
O  O17  1  0.19270000  0.96950000  0.85470000  1.0 -0.1586015275
O  O18  1  0.18550000  0.85070000  0.80750000  1.0 -0.1480770693
O  O19  1  0.14517000  0.64629000  0.28510000  1.0 -0.5223214165
O  O20  1  0.03789000  0.53605000  0.35897000  1.0 -0.5953644649
O  O21  1  0.86773000  0.47879000  0.44830000  1.0 -0.5747468904
O  O22  1  0.88822000  0.60748000  0.37722000  1.0 -0.5434335009
O  O23  1  0.06253000  0.65739000  0.49736000  1.0 -0.4938212321
O  O24  1  0.03320000  0.81300000  0.29360000  1.0 -0.1586015275
O  O25  1  0.14320000  0.80300000  0.35930000  1.0 -0.1215733862
O  O26  1  0.03050000  0.80730000  0.35470000  1.0 -0.1586015275
O  O27  1  0.14930000  0.81450000  0.30750000  1.0 -0.1480770693
O  O28  1  0.85483000  0.35371000  0.71490000  1.0 -0.5223214165
O  O29  1  0.96211000  0.46395000  0.64103000  1.0 -0.5953644649
O  O30  1  0.13227000  0.52121000  0.55170000  1.0 -0.5747468904
O  O31  1  0.11178000  0.39252000  0.62278000  1.0 -0.5434335009
O  O32  1  0.93747000  0.34261000  0.50264000  1.0 -0.4938212321
O  O33  1  0.96680000  0.18700000  0.70640000  1.0 -0.1586015275
O  O34  1  0.85680000  0.19700000  0.64070000  1.0 -0.1215733862
O  O35  1  0.96950000  0.19270000  0.64530000  1.0 -0.1586015275
O  O36  1  0.85070000  0.18550000  0.69250000  1.0 -0.1480770693
