# DDEC6 charges by PACMAN v1.1 (https://github.com/mtap-research/PACMAN-charge/)
data_YECQUS02_ASR_pacman
_symmetry_space_group_name_H-M   'P 1'
_cell_length_a   14.68500000
_cell_length_b   14.68500000
_cell_length_c   8.92740000
_cell_angle_alpha   90.00000000
_cell_angle_beta   90.00000000
_cell_angle_gamma   90.00000000
_symmetry_Int_Tables_number   1
_chemical_formula_structural   ZnPO6
_chemical_formula_sum   'Zn16 P16 O96'
_cell_volume   1925.18689127
_cell_formula_units_Z   16
loop_
 _symmetry_equiv_pos_site_id
 _symmetry_equiv_pos_as_xyz
  1  'x, y, z'
loop_
 _atom_site_type_symbol
 _atom_site_label
 _atom_site_symmetry_multiplicity
 _atom_site_fract_x
 _atom_site_fract_y
 _atom_site_fract_z
 _atom_site_occupancy
 _atom_site_charge
Zn  Zn1  1  0.01115000  0.13179000  0.73908000  1.0 1.2501098503
Zn  Zn2  1  0.98885000  0.86821000  0.73908000  1.0 1.2501098503
Zn  Zn3  1  0.48885000  0.63179000  0.73908000  1.0 1.2501098503
Zn  Zn4  1  0.51115000  0.36821000  0.73908000  1.0 1.2501098503
Zn  Zn5  1  0.13179000  0.98885000  0.23908000  1.0 1.2501098503
Zn  Zn6  1  0.86821000  0.01115000  0.23908000  1.0 1.2501098503
Zn  Zn7  1  0.36821000  0.48885000  0.23908000  1.0 1.2501098503
Zn  Zn8  1  0.63179000  0.51115000  0.23908000  1.0 1.2501098503
Zn  Zn9  1  0.36891000  0.00156000  0.55399000  1.0 0.8710608472
Zn  Zn10  1  0.63109000  0.99844000  0.55399000  1.0 0.8710608472
Zn  Zn11  1  0.13109000  0.50156000  0.55399000  1.0 0.8710608472
Zn  Zn12  1  0.86891000  0.49844000  0.55399000  1.0 0.8710608472
Zn  Zn13  1  0.00156000  0.63109000  0.05399000  1.0 0.8710608472
Zn  Zn14  1  0.99844000  0.36891000  0.05399000  1.0 0.8710608472
Zn  Zn15  1  0.49844000  0.13109000  0.05399000  1.0 0.8710608472
Zn  Zn16  1  0.50156000  0.86891000  0.05399000  1.0 0.8710608472
P  P1  1  0.00000000  0.35370000  0.69520000  1.0 0.7696609288
P  P2  1  0.00000000  0.64630000  0.69520000  1.0 0.7766820658
P  P3  1  0.50000000  0.85370000  0.69520000  1.0 0.7766820658
P  P4  1  0.50000000  0.14630000  0.69520000  1.0 0.7766820658
P  P5  1  0.35370000  0.00000000  0.19520000  1.0 0.7696609288
P  P6  1  0.64630000  0.00000000  0.19520000  1.0 0.7766820658
P  P7  1  0.14630000  0.50000000  0.19520000  1.0 0.7766820658
P  P8  1  0.85370000  0.50000000  0.19520000  1.0 0.7696609288
P  P9  1  0.14700000  0.98660000  0.59690000  1.0 1.3885959078
P  P10  1  0.85300000  0.01340000  0.59690000  1.0 1.3885959078
P  P11  1  0.35300000  0.48660000  0.59690000  1.0 1.3885959078
P  P12  1  0.64700000  0.51340000  0.59690000  1.0 1.3885959078
P  P13  1  0.98660000  0.85300000  0.09690000  1.0 1.3885959078
P  P14  1  0.01340000  0.14700000  0.09690000  1.0 1.3885959078
P  P15  1  0.51340000  0.35300000  0.09690000  1.0 1.3885959078
P  P16  1  0.48660000  0.64700000  0.09690000  1.0 1.3885959078
O  O1  1  0.09640000  0.07770000  0.60310000  1.0 -0.5912967335
O  O2  1  0.90360000  0.92230000  0.60310000  1.0 -0.5912967335
O  O3  1  0.40360000  0.57770000  0.60310000  1.0 -0.5912967335
O  O4  1  0.59640000  0.42230000  0.60310000  1.0 -0.5912967335
O  O5  1  0.07770000  0.90360000  0.10310000  1.0 -0.5912967335
O  O6  1  0.92230000  0.09640000  0.10310000  1.0 -0.5912967335
O  O7  1  0.42230000  0.40360000  0.10310000  1.0 -0.5912967335
O  O8  1  0.57770000  0.59640000  0.10310000  1.0 -0.5912967335
O  O9  1  0.13920000  0.94620000  0.44280000  1.0 -0.6523329253
O  O10  1  0.86080000  0.05380000  0.44280000  1.0 -0.6523329253
O  O11  1  0.36080000  0.44620000  0.44280000  1.0 -0.6523329253
O  O12  1  0.63920000  0.55380000  0.44280000  1.0 -0.6523329253
O  O13  1  0.94620000  0.86080000  0.94280000  1.0 -0.6523329253
O  O14  1  0.05380000  0.13920000  0.94280000  1.0 -0.6523329253
O  O15  1  0.55380000  0.36080000  0.94280000  1.0 -0.6523329253
O  O16  1  0.44620000  0.63920000  0.94280000  1.0 -0.6523329253
O  O17  1  0.10580000  0.92290000  0.71330000  1.0 -0.7040227364
O  O18  1  0.89420000  0.07710000  0.71330000  1.0 -0.7040227364
O  O19  1  0.39420000  0.42290000  0.71330000  1.0 -0.7040227364
O  O20  1  0.60580000  0.57710000  0.71330000  1.0 -0.7040227364
O  O21  1  0.92290000  0.89420000  0.21330000  1.0 -0.7040227364
O  O22  1  0.07710000  0.10580000  0.21330000  1.0 -0.7040227364
O  O23  1  0.57710000  0.39420000  0.21330000  1.0 -0.7040227364
O  O24  1  0.42290000  0.60580000  0.21330000  1.0 -0.7040227364
O  O25  1  0.24570000  0.00360000  0.63610000  1.0 -0.6113592482
O  O26  1  0.75430000  0.99640000  0.63610000  1.0 -0.6113592482
O  O27  1  0.25430000  0.50360000  0.63610000  1.0 -0.61520815
O  O28  1  0.74570000  0.49640000  0.63610000  1.0 -0.6113592482
O  O29  1  0.00360000  0.75430000  0.13610000  1.0 -0.6113592482
O  O30  1  0.99640000  0.24570000  0.13610000  1.0 -0.6113592482
O  O31  1  0.49640000  0.25430000  0.13610000  1.0 -0.6113592482
O  O32  1  0.50360000  0.74570000  0.13610000  1.0 -0.6113592482
O  O33  1  0.00830000  0.25000000  0.64520000  1.0 -0.3981399137
O  O34  1  0.99170000  0.75000000  0.64520000  1.0 -0.3981399137
O  O35  1  0.49170000  0.75000000  0.64520000  1.0 -0.3981399137
O  O36  1  0.50830000  0.25000000  0.64520000  1.0 -0.3981399137
O  O37  1  0.25000000  0.99170000  0.14520000  1.0 -0.3981399137
O  O38  1  0.75000000  0.00830000  0.14520000  1.0 -0.3981399137
O  O39  1  0.25000000  0.49170000  0.14520000  1.0 -0.3981399137
O  O40  1  0.75000000  0.50830000  0.14520000  1.0 -0.3981399137
O  O41  1  0.94830000  0.35900000  0.84600000  1.0 -0.1812730461
O  O42  1  0.05170000  0.64100000  0.84600000  1.0 -0.1812730461
O  O43  1  0.55170000  0.85900000  0.84600000  1.0 -0.1812730461
O  O44  1  0.44830000  0.14100000  0.84600000  1.0 -0.1812730461
O  O45  1  0.35900000  0.05170000  0.34600000  1.0 -0.1812730461
O  O46  1  0.64100000  0.94830000  0.34600000  1.0 -0.1812730461
O  O47  1  0.14100000  0.55170000  0.34600000  1.0 -0.1812730461
O  O48  1  0.85900000  0.44830000  0.34600000  1.0 -0.1812730461
O  O49  1  0.08340000  0.39950000  0.68600000  1.0 0.0335475827
O  O50  1  0.91660000  0.60050000  0.68600000  1.0 0.0404086645
O  O51  1  0.41660000  0.89950000  0.68600000  1.0 0.0335475827
O  O52  1  0.58340000  0.10050000  0.68600000  1.0 0.0404086645
O  O53  1  0.39950000  0.91660000  0.18600000  1.0 0.0335475827
O  O54  1  0.60050000  0.08340000  0.18600000  1.0 0.0404086645
O  O55  1  0.10050000  0.41660000  0.18600000  1.0 0.0404086645
O  O56  1  0.89950000  0.58340000  0.18600000  1.0 0.0335475827
O  O57  1  0.92020000  0.38700000  0.58000000  1.0 -0.1962865155
O  O58  1  0.07980000  0.61300000  0.58000000  1.0 -0.18960808
O  O59  1  0.57980000  0.88700000  0.58000000  1.0 -0.18960808
O  O60  1  0.42020000  0.11300000  0.58000000  1.0 -0.18960808
O  O61  1  0.38700000  0.07980000  0.08000000  1.0 -0.18960808
O  O62  1  0.61300000  0.92020000  0.08000000  1.0 -0.1962865155
O  O63  1  0.11300000  0.57980000  0.08000000  1.0 -0.18960808
O  O64  1  0.88700000  0.42020000  0.08000000  1.0 -0.18960808
O  O65  1  0.07670000  0.11210000  0.21590000  1.0 -0.6895641546
O  O66  1  0.92330000  0.88790000  0.21590000  1.0 -0.6895641546
O  O67  1  0.42330000  0.61210000  0.21590000  1.0 -0.6895641546
O  O68  1  0.57670000  0.38790000  0.21590000  1.0 -0.6895641546
O  O69  1  0.11210000  0.92330000  0.71590000  1.0 -0.6895641546
O  O70  1  0.88790000  0.07670000  0.71590000  1.0 -0.6895641546
O  O71  1  0.38790000  0.42330000  0.71590000  1.0 -0.6895641546
O  O72  1  0.61210000  0.57670000  0.71590000  1.0 -0.6895641546
O  O73  1  0.05100000  0.36890000  0.85620000  1.0 -0.18960808
O  O74  1  0.94900000  0.63110000  0.85620000  1.0 -0.18960808
O  O75  1  0.44900000  0.86890000  0.85620000  1.0 -0.18960808
O  O76  1  0.55100000  0.13110000  0.85620000  1.0 -0.18960808
O  O77  1  0.36890000  0.94900000  0.35620000  1.0 -0.18960808
O  O78  1  0.63110000  0.05100000  0.35620000  1.0 -0.18960808
O  O79  1  0.13110000  0.44900000  0.35620000  1.0 -0.18960808
O  O80  1  0.86890000  0.55100000  0.35620000  1.0 -0.18960808
O  O81  1  0.07430000  0.39730000  0.57900000  1.0 -0.1641771841
O  O82  1  0.92570000  0.60270000  0.57900000  1.0 -0.1641771841
O  O83  1  0.42570000  0.89730000  0.57900000  1.0 -0.1699099737
O  O84  1  0.57430000  0.10270000  0.57900000  1.0 -0.1699099737
O  O85  1  0.39730000  0.92570000  0.07900000  1.0 -0.1641771841
O  O86  1  0.60270000  0.07430000  0.07900000  1.0 -0.1641771841
O  O87  1  0.10270000  0.42570000  0.07900000  1.0 -0.1699099737
O  O88  1  0.89730000  0.57430000  0.07900000  1.0 -0.1699099737
O  O89  1  0.91190000  0.38730000  0.67200000  1.0 0.0556053499
O  O90  1  0.08810000  0.61270000  0.67200000  1.0 0.0556053499
O  O91  1  0.58810000  0.88730000  0.67200000  1.0 0.0556053499
O  O92  1  0.41190000  0.11270000  0.67200000  1.0 0.0556053499
O  O93  1  0.38730000  0.08810000  0.17200000  1.0 0.0556053499
O  O94  1  0.61270000  0.91190000  0.17200000  1.0 0.0556053499
O  O95  1  0.11270000  0.58810000  0.17200000  1.0 0.0556053499
O  O96  1  0.88730000  0.41190000  0.17200000  1.0 0.0556053499
