# DDEC6 charges by PACMAN v1.1 (https://github.com/mtap-research/PACMAN-charge/)
data_YEDKOI_FSR_pacman
_symmetry_space_group_name_H-M   'P 1'
_cell_length_a   11.02820000
_cell_length_b   11.02820000
_cell_length_c   18.97170000
_cell_angle_alpha   90.00000000
_cell_angle_beta   90.00000000
_cell_angle_gamma   120.00000000
_symmetry_Int_Tables_number   1
_chemical_formula_structural   Cr3(C3O2)8
_chemical_formula_sum   'Cr6 C48 O32'
_cell_volume   1998.23309425
_cell_formula_units_Z   2
loop_
 _symmetry_equiv_pos_site_id
 _symmetry_equiv_pos_as_xyz
  1  'x, y, z'
loop_
 _atom_site_type_symbol
 _atom_site_label
 _atom_site_symmetry_multiplicity
 _atom_site_fract_x
 _atom_site_fract_y
 _atom_site_fract_z
 _atom_site_occupancy
 _atom_site_charge
Cr  Cr1  1  0.22360000  0.76280000  0.75000000  1.0 1.6277885016
Cr  Cr2  1  0.53920000  0.77640000  0.75000000  1.0 1.6277885016
Cr  Cr3  1  0.76280000  0.22360000  0.25000000  1.0 1.6277885016
Cr  Cr4  1  0.23720000  0.46080000  0.75000000  1.0 1.6277885016
Cr  Cr5  1  0.46080000  0.23720000  0.25000000  1.0 1.6277885016
Cr  Cr6  1  0.77640000  0.53920000  0.25000000  1.0 1.6277885016
C  C1  1  0.44440000  0.91940000  0.64160000  1.0 0.6657853103
C  C2  1  0.47500000  0.55560000  0.85840000  1.0 0.6657853103
C  C3  1  0.91940000  0.44440000  0.14160000  1.0 0.6657853103
C  C4  1  0.08060000  0.52500000  0.64160000  1.0 0.6657853103
C  C5  1  0.52500000  0.08060000  0.35840000  1.0 0.6657853103
C  C6  1  0.44440000  0.91940000  0.85840000  1.0 0.6657853103
C  C7  1  0.55560000  0.47500000  0.14160000  1.0 0.6657853103
C  C8  1  0.47500000  0.55560000  0.64160000  1.0 0.6657853103
C  C9  1  0.91940000  0.44440000  0.35840000  1.0 0.6657853103
C  C10  1  0.08060000  0.52500000  0.85840000  1.0 0.6657853103
C  C11  1  0.52500000  0.08060000  0.14160000  1.0 0.6657853103
C  C12  1  0.55560000  0.47500000  0.35840000  1.0 0.6657853103
C  C13  1  0.48410000  0.98540000  0.57280000  1.0 -0.0442567342
C  C14  1  0.50130000  0.51590000  0.92720000  1.0 -0.0442567342
C  C15  1  0.98540000  0.48410000  0.07280000  1.0 -0.0442567342
C  C16  1  0.01460000  0.49870000  0.57280000  1.0 -0.0442567342
C  C17  1  0.49870000  0.01460000  0.42720000  1.0 -0.0442567342
C  C18  1  0.48410000  0.98540000  0.92720000  1.0 -0.0442567342
C  C19  1  0.51590000  0.50130000  0.07280000  1.0 -0.0442567342
C  C20  1  0.50130000  0.51590000  0.57280000  1.0 -0.0442567342
C  C21  1  0.98540000  0.48410000  0.42720000  1.0 -0.0442567342
C  C22  1  0.01460000  0.49870000  0.92720000  1.0 -0.0442567342
C  C23  1  0.49870000  0.01460000  0.07280000  1.0 -0.0442567342
C  C24  1  0.51590000  0.50130000  0.42720000  1.0 -0.0442567342
C  C25  1  0.60260000  0.99940000  0.53650000  1.0 0.0294462224
C  C26  1  0.39680000  0.39740000  0.96350000  1.0 0.0294462224
C  C27  1  0.99940000  0.60260000  0.03650000  1.0 0.0294462224
C  C28  1  0.00060000  0.60320000  0.53650000  1.0 0.0294462224
C  C29  1  0.60320000  0.00060000  0.46350000  1.0 0.0294462224
C  C30  1  0.60260000  0.99940000  0.96350000  1.0 0.0294462224
C  C31  1  0.39740000  0.39680000  0.03650000  1.0 0.0294462224
C  C32  1  0.39680000  0.39740000  0.53650000  1.0 0.0294462224
C  C33  1  0.99940000  0.60260000  0.46350000  1.0 0.0294462224
C  C34  1  0.00060000  0.60320000  0.96350000  1.0 0.0294462224
C  C35  1  0.60320000  0.00060000  0.03650000  1.0 0.0294462224
C  C36  1  0.39740000  0.39680000  0.46350000  1.0 0.0294462224
C  C37  1  0.37710000  0.98640000  0.53630000  1.0 0.0477713339
C  C38  1  0.60930000  0.62290000  0.96370000  1.0 0.0477713339
C  C39  1  0.98640000  0.37710000  0.03630000  1.0 0.0477713339
C  C40  1  0.01360000  0.39070000  0.53630000  1.0 0.0477713339
C  C41  1  0.39070000  0.01360000  0.46370000  1.0 0.0477713339
C  C42  1  0.37710000  0.98640000  0.96370000  1.0 0.0477713339
C  C43  1  0.62290000  0.60930000  0.03630000  1.0 0.0477713339
C  C44  1  0.60930000  0.62290000  0.53630000  1.0 0.0477713339
C  C45  1  0.98640000  0.37710000  0.46370000  1.0 0.0477713339
C  C46  1  0.01360000  0.39070000  0.96370000  1.0 0.0477713339
C  C47  1  0.39070000  0.01360000  0.03630000  1.0 0.0477713339
C  C48  1  0.62290000  0.60930000  0.46370000  1.0 0.0477713339
O  O1  1  0.33333333  0.66666667  0.75000000  1.0 -1.139493885
O  O2  1  0.66666667  0.33333333  0.25000000  1.0 -1.139493885
O  O3  1  0.33000000  0.90400000  0.67200000  1.0 -0.5137677713
O  O4  1  0.57400000  0.67000000  0.82800000  1.0 -0.5137677713
O  O5  1  0.90400000  0.33000000  0.17200000  1.0 -0.5137677713
O  O6  1  0.09600000  0.42600000  0.67200000  1.0 -0.5137677713
O  O7  1  0.42600000  0.09600000  0.32800000  1.0 -0.5137677713
O  O8  1  0.33000000  0.90400000  0.82800000  1.0 -0.5137677713
O  O9  1  0.67000000  0.57400000  0.17200000  1.0 -0.5137677713
O  O10  1  0.57400000  0.67000000  0.67200000  1.0 -0.5137677713
O  O11  1  0.90400000  0.33000000  0.32800000  1.0 -0.5137677713
O  O12  1  0.09600000  0.42600000  0.82800000  1.0 -0.5137677713
O  O13  1  0.42600000  0.09600000  0.17200000  1.0 -0.5137677713
O  O14  1  0.67000000  0.57400000  0.32800000  1.0 -0.5137677713
O  O15  1  0.52260000  0.88950000  0.67770000  1.0 -0.4939203683
O  O16  1  0.36690000  0.47740000  0.82230000  1.0 -0.4939203683
O  O17  1  0.88950000  0.52260000  0.17770000  1.0 -0.4939203683
O  O18  1  0.11050000  0.63310000  0.67770000  1.0 -0.4939203683
O  O19  1  0.63310000  0.11050000  0.32230000  1.0 -0.4939203683
O  O20  1  0.52260000  0.88950000  0.82230000  1.0 -0.4939203683
O  O21  1  0.47740000  0.36690000  0.17770000  1.0 -0.4939203683
O  O22  1  0.36690000  0.47740000  0.67770000  1.0 -0.4939203683
O  O23  1  0.88950000  0.52260000  0.32230000  1.0 -0.4939203683
O  O24  1  0.11050000  0.63310000  0.82230000  1.0 -0.4939203683
O  O25  1  0.63310000  0.11050000  0.17770000  1.0 -0.4939203683
O  O26  1  0.47740000  0.36690000  0.32230000  1.0 -0.4939203683
O  O27  1  0.08730000  0.82260000  0.75000000  1.0 -0.630073192
O  O28  1  0.73530000  0.91270000  0.75000000  1.0 -0.630073192
O  O29  1  0.82260000  0.08730000  0.25000000  1.0 -0.630073192
O  O30  1  0.17740000  0.26470000  0.75000000  1.0 -0.630073192
O  O31  1  0.26470000  0.17740000  0.25000000  1.0 -0.630073192
O  O32  1  0.91270000  0.73530000  0.25000000  1.0 -0.630073192
