# DDEC6 charges by PACMAN v1.1 (https://github.com/mtap-research/PACMAN-charge/)
data_YEFPII_ASR_pacman
_symmetry_space_group_name_H-M   'P 1'
_cell_length_a   11.77100000
_cell_length_b   11.77100000
_cell_length_c   11.77100000
_cell_angle_alpha   90.00000000
_cell_angle_beta   90.00000000
_cell_angle_gamma   90.00000000
_symmetry_Int_Tables_number   1
_chemical_formula_structural   ZnCu(CN)4
_chemical_formula_sum   'Zn4 Cu4 C16 N16'
_cell_volume   1630.94786701
_cell_formula_units_Z   4
loop_
 _symmetry_equiv_pos_site_id
 _symmetry_equiv_pos_as_xyz
  1  'x, y, z'
loop_
 _atom_site_type_symbol
 _atom_site_label
 _atom_site_symmetry_multiplicity
 _atom_site_fract_x
 _atom_site_fract_y
 _atom_site_fract_z
 _atom_site_occupancy
 _atom_site_charge
Zn  Zn1  1  0.25000000  0.25000000  0.25000000  1.0 0.8877830466
Zn  Zn2  1  0.75000000  0.75000000  0.25000000  1.0 0.8877830466
Zn  Zn3  1  0.75000000  0.25000000  0.75000000  1.0 0.8877830466
Zn  Zn4  1  0.25000000  0.75000000  0.75000000  1.0 0.8877830466
Cu  Cu1  1  0.00000000  0.00000000  0.00000000  1.0 0.0840149657
Cu  Cu2  1  0.00000000  0.50000000  0.50000000  1.0 0.0870568564
Cu  Cu3  1  0.50000000  0.00000000  0.50000000  1.0 0.0840149657
Cu  Cu4  1  0.50000000  0.50000000  0.00000000  1.0 0.0840149657
C  C1  1  0.09301000  0.09301000  0.09301000  1.0 0.2802361621
C  C2  1  0.90699000  0.90699000  0.09301000  1.0 0.2802361621
C  C3  1  0.90699000  0.09301000  0.90699000  1.0 0.2802361621
C  C4  1  0.09301000  0.90699000  0.90699000  1.0 0.2802361621
C  C5  1  0.09301000  0.59301000  0.59301000  1.0 0.2802361621
C  C6  1  0.90699000  0.40699000  0.59301000  1.0 0.2802361621
C  C7  1  0.90699000  0.59301000  0.40699000  1.0 0.2802361621
C  C8  1  0.09301000  0.40699000  0.40699000  1.0 0.2802361621
C  C9  1  0.59301000  0.09301000  0.59301000  1.0 0.2802361621
C  C10  1  0.40699000  0.90699000  0.59301000  1.0 0.2802361621
C  C11  1  0.40699000  0.09301000  0.40699000  1.0 0.2802361621
C  C12  1  0.59301000  0.90699000  0.40699000  1.0 0.2802361621
C  C13  1  0.59301000  0.59301000  0.09301000  1.0 0.2802361621
C  C14  1  0.40699000  0.40699000  0.09301000  1.0 0.2802361621
C  C15  1  0.40699000  0.59301000  0.90699000  1.0 0.2802361621
C  C16  1  0.59301000  0.40699000  0.90699000  1.0 0.2802361621
N  N1  1  0.15128000  0.15128000  0.15128000  1.0 -0.5233757833
N  N2  1  0.84872000  0.84872000  0.15128000  1.0 -0.5233757833
N  N3  1  0.84872000  0.15128000  0.84872000  1.0 -0.5233757833
N  N4  1  0.15128000  0.84872000  0.84872000  1.0 -0.5233757833
N  N5  1  0.15128000  0.65128000  0.65128000  1.0 -0.5233757833
N  N6  1  0.84872000  0.34872000  0.65128000  1.0 -0.5233757833
N  N7  1  0.84872000  0.65128000  0.34872000  1.0 -0.5233757833
N  N8  1  0.15128000  0.34872000  0.34872000  1.0 -0.5233757833
N  N9  1  0.65128000  0.15128000  0.65128000  1.0 -0.5233757833
N  N10  1  0.34872000  0.84872000  0.65128000  1.0 -0.5233757833
N  N11  1  0.34872000  0.15128000  0.34872000  1.0 -0.5233757833
N  N12  1  0.65128000  0.84872000  0.34872000  1.0 -0.5233757833
N  N13  1  0.65128000  0.65128000  0.15128000  1.0 -0.5233757833
N  N14  1  0.34872000  0.34872000  0.15128000  1.0 -0.5233757833
N  N15  1  0.34872000  0.65128000  0.84872000  1.0 -0.5233757833
N  N16  1  0.65128000  0.34872000  0.84872000  1.0 -0.5233757833
