# DDEC6 charges by PACMAN v1.1 (https://github.com/mtap-research/PACMAN-charge/)
data_YEGCUJ_ASR_pacman
_symmetry_space_group_name_H-M   'P 1'
_cell_length_a   16.27920000
_cell_length_b   16.27920000
_cell_length_c   16.27920000
_cell_angle_alpha   90.00000000
_cell_angle_beta   90.00000000
_cell_angle_gamma   90.00000000
_symmetry_Int_Tables_number   1
_chemical_formula_structural   H6PdC8(N2O)2
_chemical_formula_sum   'H72 Pd12 C96 N48 O24'
_cell_volume   4314.18909110
_cell_formula_units_Z   12
loop_
 _symmetry_equiv_pos_site_id
 _symmetry_equiv_pos_as_xyz
  1  'x, y, z'
loop_
 _atom_site_type_symbol
 _atom_site_label
 _atom_site_symmetry_multiplicity
 _atom_site_fract_x
 _atom_site_fract_y
 _atom_site_fract_z
 _atom_site_occupancy
 _atom_site_charge
H  H1  1  0.65720000  0.00430000  0.16940000  1.0 0.1228002713
H  H2  1  0.34280000  0.00430000  0.83060000  1.0 0.1228002713
H  H3  1  0.34280000  0.99570000  0.16940000  1.0 0.1228002713
H  H4  1  0.65720000  0.99570000  0.83060000  1.0 0.1228002713
H  H5  1  0.49570000  0.15720000  0.66940000  1.0 0.1228002713
H  H6  1  0.50430000  0.84280000  0.66940000  1.0 0.1228002713
H  H7  1  0.66940000  0.50430000  0.84280000  1.0 0.1228002713
H  H8  1  0.33060000  0.50430000  0.15720000  1.0 0.1228002713
H  H9  1  0.49570000  0.84280000  0.33060000  1.0 0.1228002713
H  H10  1  0.50430000  0.15720000  0.33060000  1.0 0.1228002713
H  H11  1  0.16940000  0.65720000  0.00430000  1.0 0.1228002713
H  H12  1  0.00430000  0.16940000  0.65720000  1.0 0.1228002713
H  H13  1  0.33060000  0.49570000  0.84280000  1.0 0.1228002713
H  H14  1  0.84280000  0.33060000  0.49570000  1.0 0.1228002713
H  H15  1  0.16940000  0.34280000  0.99570000  1.0 0.1228002713
H  H16  1  0.00430000  0.83060000  0.34280000  1.0 0.1228002713
H  H17  1  0.83060000  0.65720000  0.99570000  1.0 0.1228002713
H  H18  1  0.99570000  0.16940000  0.34280000  1.0 0.1228002713
H  H19  1  0.83060000  0.34280000  0.00430000  1.0 0.1228002713
H  H20  1  0.99570000  0.83060000  0.65720000  1.0 0.1228002713
H  H21  1  0.84280000  0.66940000  0.50430000  1.0 0.1228002713
H  H22  1  0.15720000  0.33060000  0.50430000  1.0 0.1228002713
H  H23  1  0.66940000  0.49570000  0.15720000  1.0 0.1228002713
H  H24  1  0.15720000  0.66940000  0.49570000  1.0 0.1228002713
H  H25  1  0.84280000  0.49570000  0.33060000  1.0 0.1228002713
H  H26  1  0.15720000  0.49570000  0.66940000  1.0 0.1228002713
H  H27  1  0.15720000  0.50430000  0.33060000  1.0 0.1228002713
H  H28  1  0.84280000  0.50430000  0.66940000  1.0 0.1228002713
H  H29  1  0.00430000  0.34280000  0.83060000  1.0 0.1228002713
H  H30  1  0.99570000  0.65720000  0.83060000  1.0 0.1228002713
H  H31  1  0.83060000  0.99570000  0.65720000  1.0 0.1228002713
H  H32  1  0.16940000  0.99570000  0.34280000  1.0 0.1228002713
H  H33  1  0.00430000  0.65720000  0.16940000  1.0 0.1228002713
H  H34  1  0.99570000  0.34280000  0.16940000  1.0 0.1228002713
H  H35  1  0.33060000  0.84280000  0.49570000  1.0 0.1228002713
H  H36  1  0.49570000  0.33060000  0.84280000  1.0 0.1228002713
H  H37  1  0.16940000  0.00430000  0.65720000  1.0 0.1228002713
H  H38  1  0.65720000  0.16940000  0.00430000  1.0 0.1228002713
H  H39  1  0.33060000  0.15720000  0.50430000  1.0 0.1228002713
H  H40  1  0.49570000  0.66940000  0.15720000  1.0 0.1228002713
H  H41  1  0.66940000  0.84280000  0.50430000  1.0 0.1228002713
H  H42  1  0.50430000  0.33060000  0.15720000  1.0 0.1228002713
H  H43  1  0.66940000  0.15720000  0.49570000  1.0 0.1228002713
H  H44  1  0.50430000  0.66940000  0.84280000  1.0 0.1228002713
H  H45  1  0.65720000  0.83060000  0.99570000  1.0 0.1228002713
H  H46  1  0.34280000  0.16940000  0.99570000  1.0 0.1228002713
H  H47  1  0.83060000  0.00430000  0.34280000  1.0 0.1228002713
H  H48  1  0.34280000  0.83060000  0.00430000  1.0 0.1228002713
H  H49  1  0.43884000  0.43884000  0.22144000  1.0 0.1435620154
H  H50  1  0.56116000  0.43884000  0.77856000  1.0 0.1435620154
H  H51  1  0.56116000  0.56116000  0.22144000  1.0 0.1435620154
H  H52  1  0.43884000  0.56116000  0.77856000  1.0 0.1435620154
H  H53  1  0.06116000  0.93884000  0.72144000  1.0 0.1435620154
H  H54  1  0.93884000  0.06116000  0.72144000  1.0 0.1435620154
H  H55  1  0.72144000  0.93884000  0.06116000  1.0 0.1435620154
H  H56  1  0.27856000  0.93884000  0.93884000  1.0 0.1435620154
H  H57  1  0.06116000  0.06116000  0.27856000  1.0 0.1435620154
H  H58  1  0.93884000  0.93884000  0.27856000  1.0 0.1435620154
H  H59  1  0.22144000  0.43884000  0.43884000  1.0 0.1435620154
H  H60  1  0.43884000  0.22144000  0.43884000  1.0 0.1435620154
H  H61  1  0.27856000  0.06116000  0.06116000  1.0 0.1435620154
H  H62  1  0.06116000  0.27856000  0.06116000  1.0 0.1435620154
H  H63  1  0.22144000  0.56116000  0.56116000  1.0 0.1435620154
H  H64  1  0.43884000  0.77856000  0.56116000  1.0 0.1435620154
H  H65  1  0.77856000  0.43884000  0.56116000  1.0 0.1435620154
H  H66  1  0.56116000  0.22144000  0.56116000  1.0 0.1435620154
H  H67  1  0.77856000  0.56116000  0.43884000  1.0 0.1435620154
H  H68  1  0.56116000  0.77856000  0.43884000  1.0 0.1435620154
H  H69  1  0.06116000  0.72144000  0.93884000  1.0 0.1435620154
H  H70  1  0.93884000  0.27856000  0.93884000  1.0 0.1435620154
H  H71  1  0.72144000  0.06116000  0.93884000  1.0 0.1435620154
H  H72  1  0.93884000  0.72144000  0.06116000  1.0 0.1435620154
Pd  Pd1  1  0.25000000  0.50000000  0.00000000  1.0 0.4072209115
Pd  Pd2  1  0.75000000  0.50000000  0.00000000  1.0 0.4072209115
Pd  Pd3  1  0.00000000  0.75000000  0.50000000  1.0 0.4072209115
Pd  Pd4  1  0.00000000  0.25000000  0.50000000  1.0 0.4072209115
Pd  Pd5  1  0.50000000  0.00000000  0.25000000  1.0 0.4072209115
Pd  Pd6  1  0.50000000  0.00000000  0.75000000  1.0 0.4072209115
Pd  Pd7  1  0.25000000  0.00000000  0.50000000  1.0 0.4072209115
Pd  Pd8  1  0.75000000  0.00000000  0.50000000  1.0 0.4072209115
Pd  Pd9  1  0.50000000  0.75000000  0.00000000  1.0 0.4072209115
Pd  Pd10  1  0.50000000  0.25000000  0.00000000  1.0 0.4072209115
Pd  Pd11  1  0.00000000  0.50000000  0.25000000  1.0 0.4072209115
Pd  Pd12  1  0.00000000  0.50000000  0.75000000  1.0 0.4072209115
C  C1  1  0.63089000  0.95967000  0.14253000  1.0 0.0938113837
C  C2  1  0.36911000  0.95967000  0.85747000  1.0 0.0938113837
C  C3  1  0.36911000  0.04033000  0.14253000  1.0 0.0938113837
C  C4  1  0.63089000  0.04033000  0.85747000  1.0 0.0938113837
C  C5  1  0.54033000  0.13089000  0.64253000  1.0 0.0938113837
C  C6  1  0.45967000  0.86911000  0.64253000  1.0 0.0938113837
C  C7  1  0.64253000  0.45967000  0.86911000  1.0 0.0938113837
C  C8  1  0.35747000  0.45967000  0.13089000  1.0 0.0938113837
C  C9  1  0.54033000  0.86911000  0.35747000  1.0 0.0938113837
C  C10  1  0.45967000  0.13089000  0.35747000  1.0 0.0938113837
C  C11  1  0.14253000  0.63089000  0.95967000  1.0 0.0938113837
C  C12  1  0.95967000  0.14253000  0.63089000  1.0 0.0938113837
C  C13  1  0.35747000  0.54033000  0.86911000  1.0 0.0938113837
C  C14  1  0.86911000  0.35747000  0.54033000  1.0 0.0938113837
C  C15  1  0.14253000  0.36911000  0.04033000  1.0 0.0938113837
C  C16  1  0.95967000  0.85747000  0.36911000  1.0 0.0938113837
C  C17  1  0.85747000  0.63089000  0.04033000  1.0 0.0938113837
C  C18  1  0.04033000  0.14253000  0.36911000  1.0 0.0938113837
C  C19  1  0.85747000  0.36911000  0.95967000  1.0 0.0938113837
C  C20  1  0.04033000  0.85747000  0.63089000  1.0 0.0938113837
C  C21  1  0.86911000  0.64253000  0.45967000  1.0 0.0938113837
C  C22  1  0.13089000  0.35747000  0.45967000  1.0 0.0938113837
C  C23  1  0.64253000  0.54033000  0.13089000  1.0 0.0938113837
C  C24  1  0.13089000  0.64253000  0.54033000  1.0 0.0938113837
C  C25  1  0.86911000  0.54033000  0.35747000  1.0 0.0938113837
C  C26  1  0.13089000  0.54033000  0.64253000  1.0 0.0938113837
C  C27  1  0.13089000  0.45967000  0.35747000  1.0 0.0938113837
C  C28  1  0.86911000  0.45967000  0.64253000  1.0 0.0938113837
C  C29  1  0.95967000  0.36911000  0.85747000  1.0 0.0938113837
C  C30  1  0.04033000  0.63089000  0.85747000  1.0 0.0938113837
C  C31  1  0.85747000  0.04033000  0.63089000  1.0 0.0938113837
C  C32  1  0.14253000  0.04033000  0.36911000  1.0 0.0938113837
C  C33  1  0.95967000  0.63089000  0.14253000  1.0 0.0938113837
C  C34  1  0.04033000  0.36911000  0.14253000  1.0 0.0938113837
C  C35  1  0.35747000  0.86911000  0.54033000  1.0 0.0938113837
C  C36  1  0.54033000  0.35747000  0.86911000  1.0 0.0938113837
C  C37  1  0.14253000  0.95967000  0.63089000  1.0 0.0938113837
C  C38  1  0.63089000  0.14253000  0.95967000  1.0 0.0938113837
C  C39  1  0.35747000  0.13089000  0.45967000  1.0 0.0938113837
C  C40  1  0.54033000  0.64253000  0.13089000  1.0 0.0938113837
C  C41  1  0.64253000  0.86911000  0.45967000  1.0 0.0938113837
C  C42  1  0.45967000  0.35747000  0.13089000  1.0 0.0938113837
C  C43  1  0.64253000  0.13089000  0.54033000  1.0 0.0938113837
C  C44  1  0.45967000  0.64253000  0.86911000  1.0 0.0938113837
C  C45  1  0.63089000  0.85747000  0.04033000  1.0 0.0938113837
C  C46  1  0.36911000  0.14253000  0.04033000  1.0 0.0938113837
C  C47  1  0.85747000  0.95967000  0.36911000  1.0 0.0938113837
C  C48  1  0.36911000  0.85747000  0.95967000  1.0 0.0938113837
C  C49  1  0.37056000  0.37056000  0.01773000  1.0 0.5593044872
C  C50  1  0.62944000  0.37056000  0.98227000  1.0 0.5593044872
C  C51  1  0.62944000  0.62944000  0.01773000  1.0 0.5593044872
C  C52  1  0.37056000  0.62944000  0.98227000  1.0 0.5593044872
C  C53  1  0.12944000  0.87056000  0.51773000  1.0 0.5593044872
C  C54  1  0.87056000  0.12944000  0.51773000  1.0 0.5593044872
C  C55  1  0.51773000  0.87056000  0.12944000  1.0 0.5593044872
C  C56  1  0.48227000  0.87056000  0.87056000  1.0 0.5593044872
C  C57  1  0.12944000  0.12944000  0.48227000  1.0 0.5593044872
C  C58  1  0.87056000  0.87056000  0.48227000  1.0 0.5593044872
C  C59  1  0.01773000  0.37056000  0.37056000  1.0 0.5593044872
C  C60  1  0.37056000  0.01773000  0.37056000  1.0 0.5593044872
C  C61  1  0.48227000  0.12944000  0.12944000  1.0 0.5593044872
C  C62  1  0.12944000  0.48227000  0.12944000  1.0 0.5593044872
C  C63  1  0.01773000  0.62944000  0.62944000  1.0 0.5593044872
C  C64  1  0.37056000  0.98227000  0.62944000  1.0 0.5593044872
C  C65  1  0.98227000  0.37056000  0.62944000  1.0 0.5593044872
C  C66  1  0.62944000  0.01773000  0.62944000  1.0 0.5593044872
C  C67  1  0.98227000  0.62944000  0.37056000  1.0 0.5593044872
C  C68  1  0.62944000  0.98227000  0.37056000  1.0 0.5593044872
C  C69  1  0.12944000  0.51773000  0.87056000  1.0 0.5593044872
C  C70  1  0.87056000  0.48227000  0.87056000  1.0 0.5593044872
C  C71  1  0.51773000  0.12944000  0.87056000  1.0 0.5593044872
C  C72  1  0.87056000  0.51773000  0.12944000  1.0 0.5593044872
C  C73  1  0.42116000  0.42116000  0.16871000  1.0 -0.2138226961
C  C74  1  0.57884000  0.42116000  0.83129000  1.0 -0.2138226961
C  C75  1  0.57884000  0.57884000  0.16871000  1.0 -0.2138226961
C  C76  1  0.42116000  0.57884000  0.83129000  1.0 -0.2138226961
C  C77  1  0.07884000  0.92116000  0.66871000  1.0 -0.2138226961
C  C78  1  0.92116000  0.07884000  0.66871000  1.0 -0.2138226961
C  C79  1  0.66871000  0.92116000  0.07884000  1.0 -0.2138226961
C  C80  1  0.33129000  0.92116000  0.92116000  1.0 -0.2138226961
C  C81  1  0.07884000  0.07884000  0.33129000  1.0 -0.2138226961
C  C82  1  0.92116000  0.92116000  0.33129000  1.0 -0.2138226961
C  C83  1  0.16871000  0.42116000  0.42116000  1.0 -0.2138226961
C  C84  1  0.42116000  0.16871000  0.42116000  1.0 -0.2138226961
C  C85  1  0.33129000  0.07884000  0.07884000  1.0 -0.2138226961
C  C86  1  0.07884000  0.33129000  0.07884000  1.0 -0.2138226961
C  C87  1  0.16871000  0.57884000  0.57884000  1.0 -0.2138226961
C  C88  1  0.42116000  0.83129000  0.57884000  1.0 -0.2138226961
C  C89  1  0.83129000  0.42116000  0.57884000  1.0 -0.2138226961
C  C90  1  0.57884000  0.16871000  0.57884000  1.0 -0.2138226961
C  C91  1  0.83129000  0.57884000  0.42116000  1.0 -0.2138226961
C  C92  1  0.57884000  0.83129000  0.42116000  1.0 -0.2138226961
C  C93  1  0.07884000  0.66871000  0.92116000  1.0 -0.2138226961
C  C94  1  0.92116000  0.33129000  0.92116000  1.0 -0.2138226961
C  C95  1  0.66871000  0.07884000  0.92116000  1.0 -0.2138226961
C  C96  1  0.92116000  0.66871000  0.07884000  1.0 -0.2138226961
N  N1  1  0.55555000  0.83191000  0.06561000  1.0 -0.2897847901
N  N2  1  0.44445000  0.83191000  0.93439000  1.0 -0.2897847901
N  N3  1  0.44445000  0.16809000  0.06561000  1.0 -0.2897847901
N  N4  1  0.55555000  0.16809000  0.93439000  1.0 -0.2897847901
N  N5  1  0.66809000  0.05555000  0.56561000  1.0 -0.2897847901
N  N6  1  0.33191000  0.94445000  0.56561000  1.0 -0.2897847901
N  N7  1  0.56561000  0.33191000  0.94445000  1.0 -0.2897847901
N  N8  1  0.43439000  0.33191000  0.05555000  1.0 -0.2897847901
N  N9  1  0.66809000  0.94445000  0.43439000  1.0 -0.2897847901
N  N10  1  0.33191000  0.05555000  0.43439000  1.0 -0.2897847901
N  N11  1  0.06561000  0.55555000  0.83191000  1.0 -0.2897847901
N  N12  1  0.83191000  0.06561000  0.55555000  1.0 -0.2897847901
N  N13  1  0.43439000  0.66809000  0.94445000  1.0 -0.2897847901
N  N14  1  0.94445000  0.43439000  0.66809000  1.0 -0.2897847901
N  N15  1  0.06561000  0.44445000  0.16809000  1.0 -0.2897847901
N  N16  1  0.83191000  0.93439000  0.44445000  1.0 -0.2897847901
N  N17  1  0.93439000  0.55555000  0.16809000  1.0 -0.2897847901
N  N18  1  0.16809000  0.06561000  0.44445000  1.0 -0.2897847901
N  N19  1  0.93439000  0.44445000  0.83191000  1.0 -0.2897847901
N  N20  1  0.16809000  0.93439000  0.55555000  1.0 -0.2897847901
N  N21  1  0.94445000  0.56561000  0.33191000  1.0 -0.2897847901
N  N22  1  0.05555000  0.43439000  0.33191000  1.0 -0.2897847901
N  N23  1  0.56561000  0.66809000  0.05555000  1.0 -0.2897847901
N  N24  1  0.05555000  0.56561000  0.66809000  1.0 -0.2897847901
N  N25  1  0.94445000  0.66809000  0.43439000  1.0 -0.2897847901
N  N26  1  0.05555000  0.66809000  0.56561000  1.0 -0.2897847901
N  N27  1  0.05555000  0.33191000  0.43439000  1.0 -0.2897847901
N  N28  1  0.94445000  0.33191000  0.56561000  1.0 -0.2897847901
N  N29  1  0.83191000  0.44445000  0.93439000  1.0 -0.2897847901
N  N30  1  0.16809000  0.55555000  0.93439000  1.0 -0.2897847901
N  N31  1  0.93439000  0.16809000  0.55555000  1.0 -0.2897847901
N  N32  1  0.06561000  0.16809000  0.44445000  1.0 -0.2897847901
N  N33  1  0.83191000  0.55555000  0.06561000  1.0 -0.2897847901
N  N34  1  0.16809000  0.44445000  0.06561000  1.0 -0.2897847901
N  N35  1  0.43439000  0.94445000  0.66809000  1.0 -0.2897847901
N  N36  1  0.66809000  0.43439000  0.94445000  1.0 -0.2897847901
N  N37  1  0.06561000  0.83191000  0.55555000  1.0 -0.2897847901
N  N38  1  0.55555000  0.06561000  0.83191000  1.0 -0.2897847901
N  N39  1  0.43439000  0.05555000  0.33191000  1.0 -0.2897847901
N  N40  1  0.66809000  0.56561000  0.05555000  1.0 -0.2897847901
N  N41  1  0.56561000  0.94445000  0.33191000  1.0 -0.2897847901
N  N42  1  0.33191000  0.43439000  0.05555000  1.0 -0.2897847901
N  N43  1  0.56561000  0.05555000  0.66809000  1.0 -0.2897847901
N  N44  1  0.33191000  0.56561000  0.94445000  1.0 -0.2897847901
N  N45  1  0.55555000  0.93439000  0.16809000  1.0 -0.2897847901
N  N46  1  0.44445000  0.06561000  0.16809000  1.0 -0.2897847901
N  N47  1  0.93439000  0.83191000  0.44445000  1.0 -0.2897847901
N  N48  1  0.44445000  0.93439000  0.83191000  1.0 -0.2897847901
O  O1  1  0.34730000  0.34730000  0.94835000  1.0 -0.546307992
O  O2  1  0.65270000  0.34730000  0.05165000  1.0 -0.546307992
O  O3  1  0.65270000  0.65270000  0.94835000  1.0 -0.546307992
O  O4  1  0.34730000  0.65270000  0.05165000  1.0 -0.546307992
O  O5  1  0.15271000  0.84730000  0.44835000  1.0 -0.546307992
O  O6  1  0.84730000  0.15271000  0.44835000  1.0 -0.546307992
O  O7  1  0.44835000  0.84730000  0.15271000  1.0 -0.546307992
O  O8  1  0.55165000  0.84730000  0.84730000  1.0 -0.546307992
O  O9  1  0.15271000  0.15271000  0.55165000  1.0 -0.546307992
O  O10  1  0.84730000  0.84730000  0.55165000  1.0 -0.546307992
O  O11  1  0.94835000  0.34730000  0.34730000  1.0 -0.546307992
O  O12  1  0.34730000  0.94835000  0.34730000  1.0 -0.546307992
O  O13  1  0.55165000  0.15271000  0.15271000  1.0 -0.546307992
O  O14  1  0.15271000  0.55165000  0.15271000  1.0 -0.546307992
O  O15  1  0.94835000  0.65270000  0.65270000  1.0 -0.546307992
O  O16  1  0.34730000  0.05165000  0.65270000  1.0 -0.546307992
O  O17  1  0.05165000  0.34730000  0.65270000  1.0 -0.546307992
O  O18  1  0.65270000  0.94835000  0.65270000  1.0 -0.546307992
O  O19  1  0.05165000  0.65270000  0.34730000  1.0 -0.546307992
O  O20  1  0.65270000  0.05165000  0.34730000  1.0 -0.546307992
O  O21  1  0.15271000  0.44835000  0.84730000  1.0 -0.546307992
O  O22  1  0.84730000  0.55165000  0.84730000  1.0 -0.546307992
O  O23  1  0.44835000  0.15271000  0.84730000  1.0 -0.546307992
O  O24  1  0.84730000  0.44835000  0.15271000  1.0 -0.546307992
