# DDEC6 charges by PACMAN v1.1 (https://github.com/mtap-research/PACMAN-charge/)
data_YEGHEZ_ASR_pacman
_symmetry_space_group_name_H-M   'P 1'
_cell_length_a   11.18330000
_cell_length_b   11.18330000
_cell_length_c   7.29080000
_cell_angle_alpha   90.00000000
_cell_angle_beta   90.00000000
_cell_angle_gamma   100.95100000
_symmetry_Int_Tables_number   1
_chemical_formula_structural   CoC13N8
_chemical_formula_sum   'Co2 C26 N16'
_cell_volume   895.22817634
_cell_formula_units_Z   2
loop_
 _symmetry_equiv_pos_site_id
 _symmetry_equiv_pos_as_xyz
  1  'x, y, z'
loop_
 _atom_site_type_symbol
 _atom_site_label
 _atom_site_symmetry_multiplicity
 _atom_site_fract_x
 _atom_site_fract_y
 _atom_site_fract_z
 _atom_site_occupancy
 _atom_site_charge
Co  Co1  1  0.00000000  0.50000000  0.50000000  1.0 0.9552530398
Co  Co2  1  0.50000000  0.00000000  0.50000000  1.0 0.9552530398
C  C1  1  0.82530000  0.26630000  0.00000000  1.0 -0.0188561817
C  C2  1  0.17470000  0.73370000  0.00000000  1.0 -0.0188561817
C  C3  1  0.26630000  0.82530000  0.00000000  1.0 -0.0188561817
C  C4  1  0.73370000  0.17470000  0.00000000  1.0 -0.0188561817
C  C5  1  0.87810000  0.32150000  0.16900000  1.0 0.300856692
C  C6  1  0.12190000  0.67850000  0.16900000  1.0 0.300856692
C  C7  1  0.32150000  0.87810000  0.83100000  1.0 0.300856692
C  C8  1  0.67850000  0.12190000  0.83100000  1.0 0.300856692
C  C9  1  0.12190000  0.67850000  0.83100000  1.0 0.300856692
C  C10  1  0.87810000  0.32150000  0.83100000  1.0 0.300856692
C  C11  1  0.67850000  0.12190000  0.16900000  1.0 0.300856692
C  C12  1  0.32150000  0.87810000  0.16900000  1.0 0.300856692
C  C13  1  0.37080000  0.37080000  0.50000000  1.0 -0.0347271363
C  C14  1  0.62920000  0.62920000  0.50000000  1.0 -0.0347271363
C  C15  1  0.24930000  0.38170000  0.50000000  1.0 0.2051036705
C  C16  1  0.75070000  0.61830000  0.50000000  1.0 0.2012700637
C  C17  1  0.38170000  0.24930000  0.50000000  1.0 0.2012700637
C  C18  1  0.61830000  0.75070000  0.50000000  1.0 0.2012700637
C  C19  1  0.46430000  0.46430000  0.41100000  1.0 0.0435018198
C  C20  1  0.53570000  0.53570000  0.41100000  1.0 0.0435018198
C  C21  1  0.46430000  0.46430000  0.58900000  1.0 0.0435018198
C  C22  1  0.53570000  0.53570000  0.58900000  1.0 0.0435018198
C  C23  1  0.56790000  0.43210000  0.29600000  1.0 0.1458379079
C  C24  1  0.43210000  0.56790000  0.29600000  1.0 0.1458379079
C  C25  1  0.43210000  0.56790000  0.70400000  1.0 0.1458379079
C  C26  1  0.56790000  0.43210000  0.70400000  1.0 0.1458379079
N  N1  1  0.91800000  0.37900000  0.29170000  1.0 -0.387147372
N  N2  1  0.08200000  0.62100000  0.29170000  1.0 -0.387147372
N  N3  1  0.37900000  0.91800000  0.70830000  1.0 -0.387147372
N  N4  1  0.62100000  0.08200000  0.70830000  1.0 -0.3848179231
N  N5  1  0.08200000  0.62100000  0.70830000  1.0 -0.387147372
N  N6  1  0.91800000  0.37900000  0.70830000  1.0 -0.387147372
N  N7  1  0.62100000  0.08200000  0.29170000  1.0 -0.3848179231
N  N8  1  0.37900000  0.91800000  0.29170000  1.0 -0.387147372
N  N9  1  0.15180000  0.41860000  0.50000000  1.0 -0.4255368288
N  N10  1  0.84820000  0.58140000  0.50000000  1.0 -0.4255368288
N  N11  1  0.41860000  0.15180000  0.50000000  1.0 -0.4255368288
N  N12  1  0.58140000  0.84820000  0.50000000  1.0 -0.4255368288
N  N13  1  0.62530000  0.37470000  0.22020000  1.0 -0.2360214989
N  N14  1  0.37470000  0.62530000  0.22020000  1.0 -0.2360214989
N  N15  1  0.37470000  0.62530000  0.77980000  1.0 -0.2360214989
N  N16  1  0.62530000  0.37470000  0.77980000  1.0 -0.2360214989
