# DDEC6 charges by PACMAN v1.1 (https://github.com/mtap-research/PACMAN-charge/)
data_YEGKIG_FSR_pacman
_symmetry_space_group_name_H-M   'P 1'
_cell_length_a   9.85912000
_cell_length_b   9.85912000
_cell_length_c   9.85912000
_cell_angle_alpha   60.00000000
_cell_angle_beta   60.00000000
_cell_angle_gamma   60.00000000
_symmetry_Int_Tables_number   1
_chemical_formula_structural   ZnH30(CN2)24
_chemical_formula_sum   'Zn2 H60 C48 N96'
_cell_volume   677.64066521
_cell_formula_units_Z   2
loop_
 _symmetry_equiv_pos_site_id
 _symmetry_equiv_pos_as_xyz
  1  'x, y, z'
loop_
 _atom_site_type_symbol
 _atom_site_label
 _atom_site_symmetry_multiplicity
 _atom_site_fract_x
 _atom_site_fract_y
 _atom_site_fract_z
 _atom_site_occupancy
 _atom_site_charge
Zn  Zn1  1  0.25000000  0.25000000  0.25000000  1.0 0.3562474583
Zn  Zn2  1  0.00000000  0.00000000  0.00000000  1.0 0.3562474583
H  H1  1  0.48500000  0.01500000  0.48500000  1.0 0.0391940487
H  H2  1  0.23500000  0.76500000  0.76500000  1.0 0.0391940487
H  H3  1  0.01500000  0.48500000  0.01500000  1.0 0.0391940487
H  H4  1  0.48500000  0.48500000  0.01500000  1.0 0.0391940487
H  H5  1  0.76500000  0.23500000  0.23500000  1.0 0.0391940487
H  H6  1  0.23500000  0.23500000  0.76500000  1.0 0.0391940487
H  H7  1  0.01500000  0.01500000  0.48500000  1.0 0.0391940487
H  H8  1  0.76500000  0.76500000  0.23500000  1.0 0.0391940487
H  H9  1  0.01500000  0.48500000  0.48500000  1.0 0.0391940487
H  H10  1  0.76500000  0.23500000  0.76500000  1.0 0.0391940487
H  H11  1  0.23500000  0.76500000  0.23500000  1.0 0.0391940487
H  H12  1  0.48500000  0.01500000  0.01500000  1.0 0.0391940487
H  H13  1  0.56070000  0.01690000  0.40550000  1.0 0.0711313679
H  H14  1  0.23310000  0.84450000  0.68930000  1.0 0.0711313679
H  H15  1  0.01690000  0.40550000  0.01690000  1.0 0.0711313679
H  H16  1  0.40550000  0.56070000  0.01690000  1.0 0.0711313679
H  H17  1  0.01690000  0.56070000  0.01690000  1.0 0.0711313679
H  H18  1  0.68930000  0.23310000  0.23310000  1.0 0.0711313679
H  H19  1  0.23310000  0.23310000  0.84450000  1.0 0.0711313679
H  H20  1  0.84450000  0.23310000  0.23310000  1.0 0.0711313679
H  H21  1  0.40550000  0.01690000  0.56070000  1.0 0.0711313679
H  H22  1  0.56070000  0.40550000  0.01690000  1.0 0.0711313679
H  H23  1  0.23310000  0.68930000  0.84450000  1.0 0.0711313679
H  H24  1  0.23310000  0.23310000  0.68930000  1.0 0.0711313679
H  H25  1  0.01690000  0.01690000  0.56070000  1.0 0.0711313679
H  H26  1  0.68930000  0.84450000  0.23310000  1.0 0.0711313679
H  H27  1  0.01690000  0.01690000  0.40550000  1.0 0.0711313679
H  H28  1  0.84450000  0.68930000  0.23310000  1.0 0.0711313679
H  H29  1  0.01690000  0.40550000  0.56070000  1.0 0.0711313679
H  H30  1  0.68930000  0.23310000  0.84450000  1.0 0.0711313679
H  H31  1  0.23310000  0.68930000  0.23310000  1.0 0.0711313679
H  H32  1  0.23310000  0.84450000  0.23310000  1.0 0.0711313679
H  H33  1  0.01690000  0.56070000  0.40550000  1.0 0.0711313679
H  H34  1  0.84450000  0.23310000  0.68930000  1.0 0.0711313679
H  H35  1  0.56070000  0.01690000  0.01690000  1.0 0.0711313679
H  H36  1  0.40550000  0.01690000  0.01690000  1.0 0.0711313679
H  H37  1  0.49660000  0.92700000  0.28820000  1.0 0.0974699992
H  H38  1  0.96180000  0.96180000  0.75340000  1.0 0.0974699992
H  H39  1  0.28820000  0.28820000  0.92700000  1.0 0.0974699992
H  H40  1  0.28820000  0.49660000  0.92700000  1.0 0.0974699992
H  H41  1  0.92700000  0.49660000  0.28820000  1.0 0.0974699992
H  H42  1  0.75340000  0.32300000  0.96180000  1.0 0.0974699992
H  H43  1  0.96180000  0.32300000  0.96180000  1.0 0.0974699992
H  H44  1  0.96180000  0.96180000  0.32300000  1.0 0.0974699992
H  H45  1  0.28820000  0.28820000  0.49660000  1.0 0.0974699992
H  H46  1  0.49660000  0.28820000  0.28820000  1.0 0.0974699992
H  H47  1  0.32300000  0.75340000  0.96180000  1.0 0.0974699992
H  H48  1  0.32300000  0.96180000  0.75340000  1.0 0.0974699992
H  H49  1  0.28820000  0.92700000  0.49660000  1.0 0.0974699992
H  H50  1  0.75340000  0.96180000  0.32300000  1.0 0.0974699992
H  H51  1  0.92700000  0.28820000  0.28820000  1.0 0.0974699992
H  H52  1  0.96180000  0.75340000  0.96180000  1.0 0.0974699992
H  H53  1  0.92700000  0.28820000  0.49660000  1.0 0.0974699992
H  H54  1  0.75340000  0.96180000  0.96180000  1.0 0.0974699992
H  H55  1  0.96180000  0.75340000  0.32300000  1.0 0.0974699992
H  H56  1  0.32300000  0.96180000  0.96180000  1.0 0.0974699992
H  H57  1  0.28820000  0.49660000  0.28820000  1.0 0.0974699992
H  H58  1  0.96180000  0.32300000  0.75340000  1.0 0.0974699992
H  H59  1  0.49660000  0.28820000  0.92700000  1.0 0.0974699992
H  H60  1  0.28820000  0.92700000  0.28820000  1.0 0.0974699992
C  C1  1  0.55500000  0.04300000  0.35900000  1.0 -0.0677020616
C  C2  1  0.20700000  0.89100000  0.69500000  1.0 -0.0677020616
C  C3  1  0.04300000  0.35900000  0.04300000  1.0 -0.0677020616
C  C4  1  0.35900000  0.55500000  0.04300000  1.0 -0.0677020616
C  C5  1  0.04300000  0.55500000  0.04300000  1.0 -0.0677020616
C  C6  1  0.69500000  0.20700000  0.20700000  1.0 -0.0677020616
C  C7  1  0.20700000  0.20700000  0.89100000  1.0 -0.0677020616
C  C8  1  0.89100000  0.20700000  0.20700000  1.0 -0.0677020616
C  C9  1  0.35900000  0.04300000  0.55500000  1.0 -0.0677020616
C  C10  1  0.55500000  0.35900000  0.04300000  1.0 -0.0677020616
C  C11  1  0.20700000  0.69500000  0.89100000  1.0 -0.0677020616
C  C12  1  0.20700000  0.20700000  0.69500000  1.0 -0.0677020616
C  C13  1  0.04300000  0.04300000  0.55500000  1.0 -0.0677020616
C  C14  1  0.69500000  0.89100000  0.20700000  1.0 -0.0677020616
C  C15  1  0.04300000  0.04300000  0.35900000  1.0 -0.0677020616
C  C16  1  0.89100000  0.69500000  0.20700000  1.0 -0.0677020616
C  C17  1  0.04300000  0.35900000  0.55500000  1.0 -0.0677020616
C  C18  1  0.69500000  0.20700000  0.89100000  1.0 -0.0677020616
C  C19  1  0.20700000  0.69500000  0.20700000  1.0 -0.0677020616
C  C20  1  0.20700000  0.89100000  0.20700000  1.0 -0.0677020616
C  C21  1  0.04300000  0.55500000  0.35900000  1.0 -0.0677020616
C  C22  1  0.89100000  0.20700000  0.69500000  1.0 -0.0677020616
C  C23  1  0.55500000  0.04300000  0.04300000  1.0 -0.0677020616
C  C24  1  0.35900000  0.04300000  0.04300000  1.0 -0.0677020616
C  C25  1  0.14600000  0.61600000  0.14600000  1.0 0.1803888862
C  C26  1  0.15800000  0.10400000  0.10400000  1.0 0.1803888862
C  C27  1  0.09200000  0.14600000  0.61600000  1.0 0.1803888862
C  C28  1  0.14600000  0.14600000  0.61600000  1.0 0.1803888862
C  C29  1  0.61600000  0.14600000  0.09200000  1.0 0.1803888862
C  C30  1  0.10400000  0.63400000  0.15800000  1.0 0.1803888862
C  C31  1  0.15800000  0.63400000  0.10400000  1.0 0.1803888862
C  C32  1  0.10400000  0.15800000  0.63400000  1.0 0.1803888862
C  C33  1  0.14600000  0.09200000  0.14600000  1.0 0.1803888862
C  C34  1  0.14600000  0.14600000  0.09200000  1.0 0.1803888862
C  C35  1  0.63400000  0.10400000  0.10400000  1.0 0.1803888862
C  C36  1  0.63400000  0.15800000  0.10400000  1.0 0.1803888862
C  C37  1  0.09200000  0.61600000  0.14600000  1.0 0.1803888862
C  C38  1  0.10400000  0.10400000  0.63400000  1.0 0.1803888862
C  C39  1  0.61600000  0.09200000  0.14600000  1.0 0.1803888862
C  C40  1  0.10400000  0.10400000  0.15800000  1.0 0.1803888862
C  C41  1  0.61600000  0.14600000  0.14600000  1.0 0.1803888862
C  C42  1  0.10400000  0.15800000  0.10400000  1.0 0.1803888862
C  C43  1  0.15800000  0.10400000  0.63400000  1.0 0.1803888862
C  C44  1  0.63400000  0.10400000  0.15800000  1.0 0.1803888862
C  C45  1  0.09200000  0.14600000  0.14600000  1.0 0.1803888862
C  C46  1  0.10400000  0.63400000  0.10400000  1.0 0.1803888862
C  C47  1  0.14600000  0.09200000  0.61600000  1.0 0.1803888862
C  C48  1  0.14600000  0.61600000  0.09200000  1.0 0.1803888862
N  N1  1  0.49000000  0.12600000  0.19200000  1.0 -0.0677020616
N  N2  1  0.05800000  0.05800000  0.76000000  1.0 -0.0677020616
N  N3  1  0.19200000  0.19200000  0.12600000  1.0 -0.0677020616
N  N4  1  0.19200000  0.49000000  0.12600000  1.0 -0.0677020616
N  N5  1  0.12600000  0.49000000  0.19200000  1.0 -0.0677020616
N  N6  1  0.76000000  0.12400000  0.05800000  1.0 -0.0677020616
N  N7  1  0.05800000  0.12400000  0.05800000  1.0 -0.0677020616
N  N8  1  0.05800000  0.05800000  0.12400000  1.0 -0.0677020616
N  N9  1  0.19200000  0.19200000  0.49000000  1.0 -0.0677020616
N  N10  1  0.49000000  0.19200000  0.19200000  1.0 -0.0677020616
N  N11  1  0.12400000  0.76000000  0.05800000  1.0 -0.0677020616
N  N12  1  0.12400000  0.05800000  0.76000000  1.0 -0.0677020616
N  N13  1  0.19200000  0.12600000  0.49000000  1.0 -0.0677020616
N  N14  1  0.76000000  0.05800000  0.12400000  1.0 -0.0677020616
N  N15  1  0.12600000  0.19200000  0.19200000  1.0 -0.0677020616
N  N16  1  0.05800000  0.76000000  0.05800000  1.0 -0.0677020616
N  N17  1  0.12600000  0.19200000  0.49000000  1.0 -0.0677020616
N  N18  1  0.76000000  0.05800000  0.05800000  1.0 -0.0677020616
N  N19  1  0.05800000  0.76000000  0.12400000  1.0 -0.0677020616
N  N20  1  0.12400000  0.05800000  0.05800000  1.0 -0.0677020616
N  N21  1  0.19200000  0.49000000  0.19200000  1.0 -0.0677020616
N  N22  1  0.05800000  0.12400000  0.76000000  1.0 -0.0677020616
N  N23  1  0.49000000  0.19200000  0.12600000  1.0 -0.0677020616
N  N24  1  0.19200000  0.12600000  0.19200000  1.0 -0.0677020616
N  N25  1  0.53200000  0.95600000  0.25600000  1.0 -0.1238709281
N  N26  1  0.99400000  0.99400000  0.71800000  1.0 -0.1238709281
N  N27  1  0.25600000  0.25600000  0.95600000  1.0 -0.1238709281
N  N28  1  0.25600000  0.53200000  0.95600000  1.0 -0.1238709281
N  N29  1  0.95600000  0.53200000  0.25600000  1.0 -0.1238709281
N  N30  1  0.71800000  0.29400000  0.99400000  1.0 -0.1238709281
N  N31  1  0.99400000  0.29400000  0.99400000  1.0 -0.1238709281
N  N32  1  0.99400000  0.99400000  0.29400000  1.0 -0.1238709281
N  N33  1  0.25600000  0.25600000  0.53200000  1.0 -0.1238709281
N  N34  1  0.53200000  0.25600000  0.25600000  1.0 -0.1238709281
N  N35  1  0.29400000  0.71800000  0.99400000  1.0 -0.1238709281
N  N36  1  0.29400000  0.99400000  0.71800000  1.0 -0.1238709281
N  N37  1  0.25600000  0.95600000  0.53200000  1.0 -0.1238709281
N  N38  1  0.71800000  0.99400000  0.29400000  1.0 -0.1238709281
N  N39  1  0.95600000  0.25600000  0.25600000  1.0 -0.1238709281
N  N40  1  0.99400000  0.71800000  0.99400000  1.0 -0.1238709281
N  N41  1  0.95600000  0.25600000  0.53200000  1.0 -0.1238709281
N  N42  1  0.71800000  0.99400000  0.99400000  1.0 -0.1238709281
N  N43  1  0.99400000  0.71800000  0.29400000  1.0 -0.1238709281
N  N44  1  0.29400000  0.99400000  0.99400000  1.0 -0.1238709281
N  N45  1  0.25600000  0.53200000  0.25600000  1.0 -0.1238709281
N  N46  1  0.99400000  0.29400000  0.71800000  1.0 -0.1238709281
N  N47  1  0.53200000  0.25600000  0.95600000  1.0 -0.1238709281
N  N48  1  0.25600000  0.95600000  0.25600000  1.0 -0.1238709281
N  N49  1  0.59900000  0.93500000  0.23300000  1.0 -0.0755465518
N  N50  1  0.01700000  0.01700000  0.65100000  1.0 -0.0677020616
N  N51  1  0.23300000  0.23300000  0.93500000  1.0 -0.0677020616
N  N52  1  0.23300000  0.59900000  0.93500000  1.0 -0.0677020616
N  N53  1  0.93500000  0.59900000  0.23300000  1.0 -0.0755465518
N  N54  1  0.65100000  0.31500000  0.01700000  1.0 -0.0755465518
N  N55  1  0.01700000  0.31500000  0.01700000  1.0 -0.0677020616
N  N56  1  0.01700000  0.01700000  0.31500000  1.0 -0.0677020616
N  N57  1  0.23300000  0.23300000  0.59900000  1.0 -0.0677020616
N  N58  1  0.59900000  0.23300000  0.23300000  1.0 -0.0677020616
N  N59  1  0.31500000  0.65100000  0.01700000  1.0 -0.0755465518
N  N60  1  0.31500000  0.01700000  0.65100000  1.0 -0.0677020616
N  N61  1  0.23300000  0.93500000  0.59900000  1.0 -0.0755465518
N  N62  1  0.65100000  0.01700000  0.31500000  1.0 -0.0677020616
N  N63  1  0.93500000  0.23300000  0.23300000  1.0 -0.0755465518
N  N64  1  0.01700000  0.65100000  0.01700000  1.0 -0.0755465518
N  N65  1  0.93500000  0.23300000  0.59900000  1.0 -0.0755465518
N  N66  1  0.65100000  0.01700000  0.01700000  1.0 -0.0677020616
N  N67  1  0.01700000  0.65100000  0.31500000  1.0 -0.0677020616
N  N68  1  0.31500000  0.01700000  0.01700000  1.0 -0.0677020616
N  N69  1  0.23300000  0.59900000  0.23300000  1.0 -0.0755465518
N  N70  1  0.01700000  0.31500000  0.65100000  1.0 -0.0677020616
N  N71  1  0.59900000  0.23300000  0.93500000  1.0 -0.0755465518
N  N72  1  0.23300000  0.93500000  0.23300000  1.0 -0.0755465518
N  N73  1  0.13500000  0.49100000  0.13500000  1.0 -0.0677020616
N  N74  1  0.01100000  0.11500000  0.11500000  1.0 -0.0677020616
N  N75  1  0.23900000  0.13500000  0.49100000  1.0 -0.0677020616
N  N76  1  0.13500000  0.13500000  0.49100000  1.0 -0.0677020616
N  N77  1  0.49100000  0.13500000  0.23900000  1.0 -0.0677020616
N  N78  1  0.11500000  0.75900000  0.01100000  1.0 -0.0677020616
N  N79  1  0.01100000  0.75900000  0.11500000  1.0 -0.0677020616
N  N80  1  0.11500000  0.01100000  0.75900000  1.0 -0.0677020616
N  N81  1  0.13500000  0.23900000  0.13500000  1.0 -0.0677020616
N  N82  1  0.13500000  0.13500000  0.23900000  1.0 -0.0677020616
N  N83  1  0.75900000  0.11500000  0.11500000  1.0 -0.0677020616
N  N84  1  0.75900000  0.01100000  0.11500000  1.0 -0.0677020616
N  N85  1  0.23900000  0.49100000  0.13500000  1.0 -0.0677020616
N  N86  1  0.11500000  0.11500000  0.75900000  1.0 -0.0677020616
N  N87  1  0.49100000  0.23900000  0.13500000  1.0 -0.0677020616
N  N88  1  0.11500000  0.11500000  0.01100000  1.0 -0.0677020616
N  N89  1  0.49100000  0.13500000  0.13500000  1.0 -0.0677020616
N  N90  1  0.11500000  0.01100000  0.11500000  1.0 -0.0677020616
N  N91  1  0.01100000  0.11500000  0.75900000  1.0 -0.0677020616
N  N92  1  0.75900000  0.11500000  0.01100000  1.0 -0.0677020616
N  N93  1  0.23900000  0.13500000  0.13500000  1.0 -0.0677020616
N  N94  1  0.11500000  0.75900000  0.11500000  1.0 -0.0677020616
N  N95  1  0.13500000  0.23900000  0.49100000  1.0 -0.0677020616
N  N96  1  0.13500000  0.49100000  0.23900000  1.0 -0.0677020616
