# DDEC6 charges by PACMAN v1.1 (https://github.com/mtap-research/PACMAN-charge/)
data_YEGKOM_ASR_pacman
_symmetry_space_group_name_H-M   'P 1'
_cell_length_a   10.20400000
_cell_length_b   10.20400000
_cell_length_c   13.09980000
_cell_angle_alpha   90.00000000
_cell_angle_beta   90.00000000
_cell_angle_gamma   90.00000000
_symmetry_Int_Tables_number   1
_chemical_formula_structural   ZnH6(CN2)4
_chemical_formula_sum   'Zn4 H24 C16 N32'
_cell_volume   1363.97234528
_cell_formula_units_Z   4
loop_
 _symmetry_equiv_pos_site_id
 _symmetry_equiv_pos_as_xyz
  1  'x, y, z'
loop_
 _atom_site_type_symbol
 _atom_site_label
 _atom_site_symmetry_multiplicity
 _atom_site_fract_x
 _atom_site_fract_y
 _atom_site_fract_z
 _atom_site_occupancy
 _atom_site_charge
Zn  Zn1  1  0.26969000  0.26969000  0.50000000  1.0 0.6633121901
Zn  Zn2  1  0.73031000  0.73031000  0.00000000  1.0 0.6633121901
Zn  Zn3  1  0.23031000  0.76969000  0.25000000  1.0 0.6633121901
Zn  Zn4  1  0.76969000  0.23031000  0.75000000  1.0 0.6633121901
H  H1  1  0.37850000  0.54680000  0.55240000  1.0 0.1094022159
H  H2  1  0.62150000  0.45320000  0.05240000  1.0 0.1094022159
H  H3  1  0.95320000  0.87850000  0.30240000  1.0 0.1094022159
H  H4  1  0.04680000  0.12150000  0.80240000  1.0 0.1094022159
H  H5  1  0.12150000  0.04680000  0.19760000  1.0 0.1094022159
H  H6  1  0.87850000  0.95320000  0.69760000  1.0 0.1094022159
H  H7  1  0.54680000  0.37850000  0.44760000  1.0 0.1094022159
H  H8  1  0.45320000  0.62150000  0.94760000  1.0 0.1094022159
H  H9  1  0.13090000  0.48850000  0.23350000  1.0 0.3003872865
H  H10  1  0.86910000  0.51150000  0.73350000  1.0 0.3003872865
H  H11  1  0.01150000  0.63090000  0.98350000  1.0 0.3003872865
H  H12  1  0.98850000  0.36910000  0.48350000  1.0 0.3003872865
H  H13  1  0.36910000  0.98850000  0.51650000  1.0 0.3003872865
H  H14  1  0.63090000  0.01150000  0.01650000  1.0 0.3003872865
H  H15  1  0.48850000  0.13090000  0.76650000  1.0 0.3003872865
H  H16  1  0.51150000  0.86910000  0.26650000  1.0 0.3003872865
H  H17  1  0.14210000  0.36380000  0.29190000  1.0 0.2871915035
H  H18  1  0.85790000  0.63620000  0.79190000  1.0 0.2871915035
H  H19  1  0.13620000  0.64210000  0.04190000  1.0 0.2871915035
H  H20  1  0.86380000  0.35790000  0.54190000  1.0 0.2871915035
H  H21  1  0.35790000  0.86380000  0.45810000  1.0 0.2871915035
H  H22  1  0.64210000  0.13620000  0.95810000  1.0 0.2871915035
H  H23  1  0.36380000  0.14210000  0.70810000  1.0 0.2871915035
H  H24  1  0.63620000  0.85790000  0.20810000  1.0 0.2871915035
C  C1  1  0.22870000  0.50900000  0.35980000  1.0 0.4767350041
C  C2  1  0.77130000  0.49100000  0.85980000  1.0 0.4767350041
C  C3  1  0.99100000  0.72870000  0.10980000  1.0 0.4767350041
C  C4  1  0.00900000  0.27130000  0.60980000  1.0 0.4767350041
C  C5  1  0.27130000  0.00900000  0.39020000  1.0 0.4767350041
C  C6  1  0.72870000  0.99100000  0.89020000  1.0 0.4767350041
C  C7  1  0.50900000  0.22870000  0.64020000  1.0 0.4767350041
C  C8  1  0.49100000  0.77130000  0.14020000  1.0 0.4767350041
C  C9  1  0.33510000  0.55400000  0.49020000  1.0 0.1094022159
C  C10  1  0.66490000  0.44600000  0.99020000  1.0 0.1094022159
C  C11  1  0.94600000  0.83510000  0.24020000  1.0 0.1094022159
C  C12  1  0.05400000  0.16490000  0.74020000  1.0 0.1094022159
C  C13  1  0.16490000  0.05400000  0.25980000  1.0 0.1094022159
C  C14  1  0.83510000  0.94600000  0.75980000  1.0 0.1094022159
C  C15  1  0.55400000  0.33510000  0.50980000  1.0 0.1094022159
C  C16  1  0.44600000  0.66490000  0.00980000  1.0 0.1094022159
N  N1  1  0.27410000  0.45200000  0.44230000  1.0 -0.4352322834
N  N2  1  0.72590000  0.54800000  0.94230000  1.0 -0.4352322834
N  N3  1  0.04800000  0.77410000  0.19230000  1.0 -0.4352322834
N  N4  1  0.95200000  0.22590000  0.69230000  1.0 -0.4341012455
N  N5  1  0.22590000  0.95200000  0.30770000  1.0 -0.4352322834
N  N6  1  0.77410000  0.04800000  0.80770000  1.0 -0.4352322834
N  N7  1  0.45200000  0.27410000  0.55770000  1.0 -0.4352322834
N  N8  1  0.54800000  0.72590000  0.05770000  1.0 -0.4341012455
N  N9  1  0.25260000  0.63330000  0.34960000  1.0 -0.3455593504
N  N10  1  0.74740000  0.36670000  0.84960000  1.0 -0.3441761735
N  N11  1  0.86670000  0.75260000  0.09960000  1.0 -0.3441761735
N  N12  1  0.13330000  0.24740000  0.59960000  1.0 -0.3441761735
N  N13  1  0.24740000  0.13330000  0.40040000  1.0 -0.3441761735
N  N14  1  0.75260000  0.86670000  0.90040000  1.0 -0.3441761735
N  N15  1  0.63330000  0.25260000  0.65040000  1.0 -0.3441761735
N  N16  1  0.36670000  0.74740000  0.15040000  1.0 -0.3441761735
N  N17  1  0.32570000  0.66300000  0.43910000  1.0 -0.2155403189
N  N18  1  0.67430000  0.33700000  0.93910000  1.0 -0.2155403189
N  N19  1  0.83700000  0.82570000  0.18910000  1.0 -0.2155403189
N  N20  1  0.16300000  0.17430000  0.68910000  1.0 -0.2155403189
N  N21  1  0.17430000  0.16300000  0.31090000  1.0 -0.2155403189
N  N22  1  0.82570000  0.83700000  0.81090000  1.0 -0.2155403189
N  N23  1  0.66300000  0.32570000  0.56090000  1.0 -0.2155403189
N  N24  1  0.33700000  0.67430000  0.06090000  1.0 -0.2155403189
N  N25  1  0.15860000  0.44600000  0.28590000  1.0 -0.6199354075
N  N26  1  0.84140000  0.55400000  0.78590000  1.0 -0.6199354075
N  N27  1  0.05400000  0.65860000  0.03590000  1.0 -0.6199354075
N  N28  1  0.94600000  0.34140000  0.53590000  1.0 -0.6199354075
N  N29  1  0.34140000  0.94600000  0.46410000  1.0 -0.6199354075
N  N30  1  0.65860000  0.05400000  0.96410000  1.0 -0.6199354075
N  N31  1  0.44600000  0.15860000  0.71410000  1.0 -0.6199354075
N  N32  1  0.55400000  0.84140000  0.21410000  1.0 -0.6199354075
