# DDEC6 charges by PACMAN v1.1 (https://github.com/mtap-research/PACMAN-charge/)
data_YEGRAD_FSR_pacman
_symmetry_space_group_name_H-M   'P 1'
_cell_length_a   19.98460000
_cell_length_b   19.98460000
_cell_length_c   19.98460000
_cell_angle_alpha   138.98900000
_cell_angle_beta   98.87910000
_cell_angle_gamma   95.22470000
_symmetry_Int_Tables_number   1
_chemical_formula_structural   CdAg2(C8N3)2
_chemical_formula_sum   'Cd8 Ag16 C128 N48'
_cell_volume   4902.47786774
_cell_formula_units_Z   8
loop_
 _symmetry_equiv_pos_site_id
 _symmetry_equiv_pos_as_xyz
  1  'x, y, z'
loop_
 _atom_site_type_symbol
 _atom_site_label
 _atom_site_symmetry_multiplicity
 _atom_site_fract_x
 _atom_site_fract_y
 _atom_site_fract_z
 _atom_site_occupancy
 _atom_site_charge
Cd  Cd1  1  0.75615000  0.50806000  0.48831000  1.0 0.9257514584
Cd  Cd2  1  0.74385000  0.23216000  0.75191000  1.0 0.9237074448
Cd  Cd3  1  0.01975000  0.00806000  0.25191000  1.0 0.9257514584
Cd  Cd4  1  0.48025000  0.73216000  0.98831000  1.0 0.9257514584
Cd  Cd5  1  0.98025000  0.99194000  0.74809000  1.0 0.9257514584
Cd  Cd6  1  0.51975000  0.26784000  0.01169000  1.0 0.9257514584
Cd  Cd7  1  0.24385000  0.49194000  0.51169000  1.0 0.9257514584
Cd  Cd8  1  0.25615000  0.76784000  0.24809000  1.0 0.9257514584
Ag  Ag1  1  0.68892000  0.11896000  0.31154000  1.0 0.0772516381
Ag  Ag2  1  0.81108000  0.12262000  0.43004000  1.0 0.0772516381
Ag  Ag3  1  0.80742000  0.61896000  0.93004000  1.0 0.0772516381
Ag  Ag4  1  0.69258000  0.62262000  0.81154000  1.0 0.0772516381
Ag  Ag5  1  0.72663000  0.86019000  0.61098000  1.0 0.1116570044
Ag  Ag6  1  0.77337000  0.38435000  0.13356000  1.0 0.1116570044
Ag  Ag7  1  0.24921000  0.36019000  0.63356000  1.0 0.1116570044
Ag  Ag8  1  0.25079000  0.88435000  0.11098000  1.0 0.1116570044
Ag  Ag9  1  0.19258000  0.38104000  0.06996000  1.0 0.0772516381
Ag  Ag10  1  0.30742000  0.37738000  0.18846000  1.0 0.0772516381
Ag  Ag11  1  0.31108000  0.88104000  0.68846000  1.0 0.0772516381
Ag  Ag12  1  0.18892000  0.87738000  0.56996000  1.0 0.0772516381
Ag  Ag13  1  0.75079000  0.63981000  0.36644000  1.0 0.1116570044
Ag  Ag14  1  0.74921000  0.11565000  0.88902000  1.0 0.1116570044
Ag  Ag15  1  0.27337000  0.13981000  0.38902000  1.0 0.1116570044
Ag  Ag16  1  0.22663000  0.61565000  0.86644000  1.0 0.1116570044
C  C1  1  0.61950000  0.96930000  0.21540000  1.0 0.0772516381
C  C2  1  0.88050000  0.09590000  0.34980000  1.0 0.0772516381
C  C3  1  0.75390000  0.46930000  0.84980000  1.0 0.0772516381
C  C4  1  0.74610000  0.59590000  0.71540000  1.0 0.0772516381
C  C5  1  0.73210000  0.73570000  0.57980000  1.0 0.0630092589
C  C6  1  0.76790000  0.34770000  0.00360000  1.0 0.0630092589
C  C7  1  0.15590000  0.23570000  0.50360000  1.0 0.0630092589
C  C8  1  0.34410000  0.84770000  0.07980000  1.0 0.0630092589
C  C9  1  0.73120000  0.98840000  0.64400000  1.0 0.0722431484
C  C10  1  0.76880000  0.41280000  0.25720000  1.0 0.0722431484
C  C11  1  0.34440000  0.48840000  0.75720000  1.0 0.0722431484
C  C12  1  0.15560000  0.91280000  0.14400000  1.0 0.0722431484
C  C13  1  0.73770000  0.27030000  0.39200000  1.0 0.0772516381
C  C14  1  0.76230000  0.15430000  0.53260000  1.0 0.0772516381
C  C15  1  0.87830000  0.77030000  0.03260000  1.0 0.0722431484
C  C16  1  0.62170000  0.65430000  0.89200000  1.0 0.0772516381
C  C17  1  0.60270000  0.40140000  0.44890000  1.0 0.2423392577
C  C18  1  0.89730000  0.34620000  0.79870000  1.0 0.2423392577
C  C19  1  0.95250000  0.90140000  0.29870000  1.0 0.2423392577
C  C20  1  0.54750000  0.84620000  0.94890000  1.0 0.2423392577
C  C21  1  0.52750000  0.36250000  0.41680000  1.0 -0.0681488329
C  C22  1  0.97250000  0.38930000  0.83500000  1.0 -0.0681488329
C  C23  1  0.94570000  0.86250000  0.33500000  1.0 -0.0681488329
C  C24  1  0.55430000  0.88930000  0.91680000  1.0 -0.0681488329
C  C25  1  0.48420000  0.36550000  0.35890000  1.0 0.1615114478
C  C26  1  0.01580000  0.37470000  0.88130000  1.0 0.1615114478
C  C27  1  0.00660000  0.86550000  0.38130000  1.0 0.1615114478
C  C28  1  0.49340000  0.87470000  0.85890000  1.0 0.1615114478
C  C29  1  0.51690000  0.41290000  0.33940000  1.0 -0.0997430751
C  C30  1  0.98310000  0.32250000  0.89600000  1.0 -0.0997430751
C  C31  1  0.07350000  0.91290000  0.39600000  1.0 -0.0997430751
C  C32  1  0.42650000  0.82250000  0.83940000  1.0 -0.0997430751
C  C33  1  0.58990000  0.44960000  0.37430000  1.0 0.1717169625
C  C34  1  0.91010000  0.28440000  0.85970000  1.0 0.1717169625
C  C35  1  0.07530000  0.94960000  0.35970000  1.0 0.1717169625
C  C36  1  0.42470000  0.78440000  0.87430000  1.0 0.1717169625
C  C37  1  0.40280000  0.32260000  0.32300000  1.0 -0.1898094969
C  C38  1  0.09720000  0.42020000  0.91980000  1.0 -0.1898094969
C  C39  1  0.99960000  0.82260000  0.41980000  1.0 -0.1898094969
C  C40  1  0.50040000  0.92020000  0.82300000  1.0 -0.1981455287
C  C41  1  0.91220000  0.63090000  0.54990000  1.0 0.1830395205
C  C42  1  0.58780000  0.13770000  0.71870000  1.0 0.1830395205
C  C43  1  0.08100000  0.13090000  0.21870000  1.0 0.1830395205
C  C44  1  0.41900000  0.63770000  0.04990000  1.0 0.1830395205
C  C45  1  0.98480000  0.67550000  0.58870000  1.0 -0.0802413387
C  C46  1  0.51520000  0.10390000  0.69070000  1.0 -0.0802413387
C  C47  1  0.08680000  0.17550000  0.19070000  1.0 -0.0802413387
C  C48  1  0.41320000  0.60390000  0.08870000  1.0 -0.0802413387
C  C49  1  0.02820000  0.65930000  0.63630000  1.0 0.1717169625
C  C50  1  0.47180000  0.10810000  0.63110000  1.0 0.1717169625
C  C51  1  0.02300000  0.15930000  0.13110000  1.0 0.1717169625
C  C52  1  0.47700000  0.60810000  0.13630000  1.0 0.1717169625
C  C53  1  0.99080000  0.59340000  0.63420000  1.0 -0.0681488329
C  C54  1  0.50920000  0.14340000  0.60260000  1.0 -0.0681488329
C  C55  1  0.95920000  0.09340000  0.10260000  1.0 -0.0681488329
C  C56  1  0.54080000  0.64340000  0.13420000  1.0 -0.0681488329
C  C57  1  0.91820000  0.55120000  0.59280000  1.0 0.1989349691
C  C58  1  0.58180000  0.17460000  0.63300000  1.0 0.1989349691
C  C59  1  0.95840000  0.05120000  0.13300000  1.0 0.1989349691
C  C60  1  0.54160000  0.67460000  0.09280000  1.0 0.1989349691
C  C61  1  0.11000000  0.70880000  0.68840000  1.0 -0.2200108356
C  C62  1  0.39000000  0.07840000  0.59880000  1.0 -0.1981455287
C  C63  1  0.02040000  0.20880000  0.09880000  1.0 -0.1981455287
C  C64  1  0.47960000  0.57840000  0.18840000  1.0 -0.1981455287
C  C65  1  0.24610000  0.53070000  0.15020000  1.0 0.0772516381
C  C66  1  0.25390000  0.40410000  0.28460000  1.0 0.0772516381
C  C67  1  0.38050000  0.03070000  0.78460000  1.0 0.0772516381
C  C68  1  0.11950000  0.90410000  0.65020000  1.0 0.0772516381
C  C69  1  0.84410000  0.76430000  0.49640000  1.0 0.0630092589
C  C70  1  0.65590000  0.15230000  0.92020000  1.0 0.0630092589
C  C71  1  0.26790000  0.26430000  0.42020000  1.0 0.0630092589
C  C72  1  0.23210000  0.65230000  0.99640000  1.0 0.0630092589
C  C73  1  0.65560000  0.51160000  0.24280000  1.0 0.0722431484
C  C74  1  0.84440000  0.08720000  0.85600000  1.0 0.0722431484
C  C75  1  0.26880000  0.01160000  0.35600000  1.0 0.0722431484
C  C76  1  0.23120000  0.58720000  0.74280000  1.0 0.0722431484
C  C77  1  0.12170000  0.22970000  0.96740000  1.0 0.0772516381
C  C78  1  0.37830000  0.34570000  0.10800000  1.0 0.0772516381
C  C79  1  0.26230000  0.72970000  0.60800000  1.0 0.0772516381
C  C80  1  0.23770000  0.84570000  0.46740000  1.0 0.0772516381
C  C81  1  0.04750000  0.09860000  0.70130000  1.0 0.2423392577
C  C82  1  0.45250000  0.15380000  0.05110000  1.0 0.2423392577
C  C83  1  0.39730000  0.59860000  0.55110000  1.0 0.2423392577
C  C84  1  0.10270000  0.65380000  0.20130000  1.0 0.2423392577
C  C85  1  0.05430000  0.13750000  0.66500000  1.0 -0.0681488329
C  C86  1  0.44570000  0.11070000  0.08320000  1.0 -0.0681488329
C  C87  1  0.47250000  0.63750000  0.58320000  1.0 -0.0681488329
C  C88  1  0.02750000  0.61070000  0.16500000  1.0 -0.0681488329
C  C89  1  0.99340000  0.13450000  0.61870000  1.0 0.1615114478
C  C90  1  0.50660000  0.12530000  0.14110000  1.0 0.1615114478
C  C91  1  0.51580000  0.63450000  0.64110000  1.0 0.1615114478
C  C92  1  0.98420000  0.62530000  0.11870000  1.0 0.1615114478
C  C93  1  0.92650000  0.08710000  0.60400000  1.0 -0.0997430751
C  C94  1  0.57350000  0.17750000  0.16060000  1.0 -0.0997430751
C  C95  1  0.48310000  0.58710000  0.66060000  1.0 -0.0997430751
C  C96  1  0.01690000  0.67750000  0.10400000  1.0 -0.0997430751
C  C97  1  0.92470000  0.05040000  0.64030000  1.0 0.1717169625
C  C98  1  0.57530000  0.21560000  0.12570000  1.0 0.1717169625
C  C99  1  0.41010000  0.55040000  0.62570000  1.0 0.1717169625
C  C100  1  0.08990000  0.71560000  0.14030000  1.0 0.1717169625
C  C101  1  0.00040000  0.17740000  0.58020000  1.0 -0.1898094969
C  C102  1  0.49960000  0.07980000  0.17700000  1.0 -0.1898094969
C  C103  1  0.59720000  0.67740000  0.67700000  1.0 -0.1898094969
C  C104  1  0.90280000  0.57980000  0.08020000  1.0 -0.1837419527
C  C105  1  0.91900000  0.86910000  0.78130000  1.0 0.1830395205
C  C106  1  0.58100000  0.36230000  0.95010000  1.0 0.1830395205
C  C107  1  0.08780000  0.36910000  0.45010000  1.0 0.1830395205
C  C108  1  0.41220000  0.86230000  0.28130000  1.0 0.1830395205
C  C109  1  0.91320000  0.82450000  0.80930000  1.0 -0.0802413387
C  C110  1  0.58680000  0.39610000  0.91130000  1.0 -0.0802413387
C  C111  1  0.01520000  0.32450000  0.41130000  1.0 -0.0802413387
C  C112  1  0.48480000  0.89610000  0.30930000  1.0 -0.0802413387
C  C113  1  0.97700000  0.84070000  0.86890000  1.0 0.1717169625
C  C114  1  0.52300000  0.39190000  0.86370000  1.0 0.1717169625
C  C115  1  0.97180000  0.34070000  0.36370000  1.0 0.1717169625
C  C116  1  0.52820000  0.89190000  0.36890000  1.0 0.1717169625
C  C117  1  0.04080000  0.90660000  0.89740000  1.0 -0.0681488329
C  C118  1  0.45920000  0.35660000  0.86580000  1.0 -0.0681488329
C  C119  1  0.00920000  0.40660000  0.36580000  1.0 -0.0681488329
C  C120  1  0.49080000  0.85660000  0.39740000  1.0 -0.0681488329
C  C121  1  0.04160000  0.94880000  0.86700000  1.0 0.1989349691
C  C122  1  0.45840000  0.32540000  0.90720000  1.0 0.1989349691
C  C123  1  0.08180000  0.44880000  0.40720000  1.0 0.1989349691
C  C124  1  0.41820000  0.82540000  0.36700000  1.0 0.1989349691
C  C125  1  0.97960000  0.79120000  0.90120000  1.0 -0.1981455287
C  C126  1  0.52040000  0.42160000  0.81160000  1.0 -0.1981455287
C  C127  1  0.89000000  0.29120000  0.31160000  1.0 -0.1981455287
C  C128  1  0.61000000  0.92160000  0.40120000  1.0 -0.1981455287
N  N1  1  0.57580000  0.89180000  0.15560000  1.0 -0.3378351065
N  N2  1  0.92420000  0.07980000  0.31600000  1.0 -0.3378351065
N  N3  1  0.73620000  0.39180000  0.81600000  1.0 -0.3378351065
N  N4  1  0.76380000  0.57980000  0.65560000  1.0 -0.3378351065
N  N5  1  0.73980000  0.66830000  0.56190000  1.0 -0.3508902895
N  N6  1  0.76020000  0.32210000  0.92850000  1.0 -0.3508902895
N  N7  1  0.10640000  0.16830000  0.42850000  1.0 -0.3508902895
N  N8  1  0.39360000  0.82210000  0.06190000  1.0 -0.3508902895
N  N9  1  0.73920000  0.06490000  0.67150000  1.0 -0.362460162
N  N10  1  0.76080000  0.43230000  0.32570000  1.0 -0.362460162
N  N11  1  0.39340000  0.56490000  0.82570000  1.0 -0.362460162
N  N12  1  0.10660000  0.93230000  0.17150000  1.0 -0.362460162
N  N13  1  0.75540000  0.34730000  0.42510000  1.0 -0.3343322831
N  N14  1  0.74460000  0.16970000  0.59190000  1.0 -0.3343322831
N  N15  1  0.92220000  0.84730000  0.09190000  1.0 -0.3343322831
N  N16  1  0.57780000  0.66970000  0.92510000  1.0 -0.3343322831
N  N17  1  0.63240000  0.44330000  0.42910000  1.0 -0.2200108356
N  N18  1  0.86760000  0.29670000  0.81090000  1.0 -0.2200108356
N  N19  1  0.01420000  0.94330000  0.31090000  1.0 -0.2200108356
N  N20  1  0.48580000  0.79670000  0.92910000  1.0 -0.2200108356
N  N21  1  0.87850000  0.57090000  0.55100000  1.0 -0.2200108356
N  N22  1  0.62150000  0.17250000  0.69240000  1.0 -0.2200108356
N  N23  1  0.01990000  0.07090000  0.19240000  1.0 -0.2200108356
N  N24  1  0.48010000  0.67250000  0.05100000  1.0 -0.2200108356
N  N25  1  0.26380000  0.60820000  0.18400000  1.0 -0.3378351065
N  N26  1  0.23620000  0.42020000  0.34440000  1.0 -0.3378351065
N  N27  1  0.42420000  0.10820000  0.84440000  1.0 -0.3378351065
N  N28  1  0.07580000  0.92020000  0.68400000  1.0 -0.3378351065
N  N29  1  0.89360000  0.83170000  0.57150000  1.0 -0.3508902895
N  N30  1  0.60640000  0.17790000  0.93810000  1.0 -0.3508902895
N  N31  1  0.26020000  0.33170000  0.43810000  1.0 -0.3508902895
N  N32  1  0.23980000  0.67790000  0.07150000  1.0 -0.3508902895
N  N33  1  0.60660000  0.43510000  0.17430000  1.0 -0.362460162
N  N34  1  0.89340000  0.06770000  0.82850000  1.0 -0.362460162
N  N35  1  0.26080000  0.93510000  0.32850000  1.0 -0.362460162
N  N36  1  0.23920000  0.56770000  0.67430000  1.0 -0.362460162
N  N37  1  0.07780000  0.15270000  0.90810000  1.0 -0.3343322831
N  N38  1  0.42220000  0.33030000  0.07490000  1.0 -0.3343322831
N  N39  1  0.24460000  0.65270000  0.57490000  1.0 -0.3343322831
N  N40  1  0.25540000  0.83030000  0.40810000  1.0 -0.3343322831
N  N41  1  0.98580000  0.05670000  0.68910000  1.0 -0.2200108356
N  N42  1  0.51420000  0.20330000  0.07090000  1.0 -0.2200108356
N  N43  1  0.36760000  0.55670000  0.57090000  1.0 -0.2200108356
N  N44  1  0.13240000  0.70330000  0.18910000  1.0 -0.2200108356
N  N45  1  0.98010000  0.92910000  0.80760000  1.0 -0.2200108356
N  N46  1  0.51990000  0.32750000  0.94900000  1.0 -0.2200108356
N  N47  1  0.12150000  0.42910000  0.44900000  1.0 -0.2200108356
N  N48  1  0.37850000  0.82750000  0.30760000  1.0 -0.2200108356
