# DDEC6 charges by PACMAN v1.1 (https://github.com/mtap-research/PACMAN-charge/)
data_YEHJEE_ASR_pacman
_symmetry_space_group_name_H-M   'P 1'
_cell_length_a   12.51660000
_cell_length_b   12.51660000
_cell_length_c   14.62440000
_cell_angle_alpha   81.71440000
_cell_angle_beta   98.28560000
_cell_angle_gamma   121.43400000
_symmetry_Int_Tables_number   1
_chemical_formula_structural   Co2H24C32(N4O3)3
_chemical_formula_sum   'Co4 H48 C64 N24 O18'
_cell_volume   1928.02528215
_cell_formula_units_Z   2
loop_
 _symmetry_equiv_pos_site_id
 _symmetry_equiv_pos_as_xyz
  1  'x, y, z'
loop_
 _atom_site_type_symbol
 _atom_site_label
 _atom_site_symmetry_multiplicity
 _atom_site_fract_x
 _atom_site_fract_y
 _atom_site_fract_z
 _atom_site_occupancy
 _atom_site_charge
Co  Co1  1  0.26276000  0.09898000  0.25942000  1.0 0.872144865
Co  Co2  1  0.09898000  0.26276000  0.24058000  1.0 0.872144865
Co  Co3  1  0.73724000  0.90102000  0.74058000  1.0 0.872144865
Co  Co4  1  0.90102000  0.73724000  0.75942000  1.0 0.872144865
H  H1  1  0.03381000  0.04029000  0.19579000  1.0 0.3792755028
H  H2  1  0.63931000  0.45183000  0.84800000  1.0 0.1592137051
H  H3  1  0.58354000  0.33220000  0.90852000  1.0 0.1289838163
H  H4  1  0.97720000  0.85386000  0.56027000  1.0 0.1158180506
H  H5  1  0.17270000  0.79818000  0.77536000  1.0 0.1158180506
H  H6  1  0.32637000  0.93657000  0.53123000  1.0 0.1503520181
H  H7  1  0.55407000  0.89483000  0.87342000  1.0 0.0988055587
H  H8  1  0.48885000  0.89795000  0.60836000  1.0 0.1289838163
H  H9  1  0.44451000  0.28715000  0.01521000  1.0 0.1143136843
H  H10  1  0.49801000  0.76293000  0.84608000  1.0 0.0988055587
H  H11  1  0.53569000  0.70003000  0.96924000  1.0 0.1158180506
H  H12  1  0.59288000  0.42910000  0.91416000  1.0 0.0801094461
H  H13  1  0.04029000  0.03381000  0.30421000  1.0 0.3792755028
H  H14  1  0.45183000  0.63931000  0.65200000  1.0 0.1592137051
H  H15  1  0.33220000  0.58354000  0.59148000  1.0 0.1289838163
H  H16  1  0.85386000  0.97720000  0.93973000  1.0 0.1158180506
H  H17  1  0.79818000  0.17270000  0.72464000  1.0 0.1143136843
H  H18  1  0.93657000  0.32637000  0.96877000  1.0 0.1503520181
H  H19  1  0.89483000  0.55407000  0.62658000  1.0 0.0988055587
H  H20  1  0.89795000  0.48885000  0.89164000  1.0 0.1289838163
H  H21  1  0.28715000  0.44451000  0.48479000  1.0 0.1143136843
H  H22  1  0.76293000  0.49801000  0.65392000  1.0 0.0988055587
H  H23  1  0.70003000  0.53569000  0.53076000  1.0 0.1158180506
H  H24  1  0.42910000  0.59288000  0.58584000  1.0 0.0801094461
H  H25  1  0.96619000  0.95971000  0.80421000  1.0 0.3792755028
H  H26  1  0.36069000  0.54817000  0.15200000  1.0 0.1592137051
H  H27  1  0.41646000  0.66780000  0.09148000  1.0 0.1289838163
H  H28  1  0.02280000  0.14614000  0.43973000  1.0 0.1158180506
H  H29  1  0.82730000  0.20182000  0.22464000  1.0 0.1143136843
H  H30  1  0.67363000  0.06343000  0.46877000  1.0 0.1503520181
H  H31  1  0.44593000  0.10517000  0.12658000  1.0 0.0988055587
H  H32  1  0.51115000  0.10205000  0.39164000  1.0 0.1289838163
H  H33  1  0.55549000  0.71285000  0.98479000  1.0 0.1143136843
H  H34  1  0.50199000  0.23707000  0.15392000  1.0 0.0988055587
H  H35  1  0.46431000  0.29997000  0.03076000  1.0 0.1158180506
H  H36  1  0.40712000  0.57090000  0.08584000  1.0 0.0801094461
H  H37  1  0.95971000  0.96619000  0.69579000  1.0 0.3792755028
H  H38  1  0.54817000  0.36069000  0.34800000  1.0 0.1592137051
H  H39  1  0.66780000  0.41646000  0.40852000  1.0 0.1289838163
H  H40  1  0.14614000  0.02280000  0.06027000  1.0 0.1158180506
H  H41  1  0.20182000  0.82730000  0.27536000  1.0 0.1143136843
H  H42  1  0.06343000  0.67363000  0.03123000  1.0 0.1503520181
H  H43  1  0.10517000  0.44593000  0.37342000  1.0 0.0988055587
H  H44  1  0.10205000  0.51115000  0.10836000  1.0 0.1289838163
H  H45  1  0.71285000  0.55549000  0.51521000  1.0 0.1143136843
H  H46  1  0.23707000  0.50199000  0.34608000  1.0 0.0988055587
H  H47  1  0.29997000  0.46431000  0.46924000  1.0 0.1158180506
H  H48  1  0.57090000  0.40712000  0.41416000  1.0 0.0801094461
C  C1  1  0.13334000  0.94506000  0.42960000  1.0 0.5816405138
C  C2  1  0.14876000  0.90144000  0.52950000  1.0 -0.0414255856
C  C3  1  0.05118000  0.85702000  0.58590000  1.0 0.0620395301
C  C4  1  0.16639000  0.82481000  0.71310000  1.0 0.0352837538
C  C5  1  0.26877000  0.87063000  0.66090000  1.0 0.0801094461
C  C6  1  0.25968000  0.90792000  0.56740000  1.0 -0.1411817836
C  C7  1  0.51300000  0.89060000  0.81460000  1.0 0.0801094461
C  C8  1  0.47963000  0.89097000  0.67130000  1.0 -0.0414255856
C  C9  1  0.31434000  0.31966000  0.12520000  1.0 0.4646270594
C  C10  1  0.40120000  0.40860000  0.05280000  1.0 -0.0002227526
C  C11  1  0.46270000  0.36990000  0.00600000  1.0 -0.1889724115
C  C12  1  0.55170000  0.45490000  0.94550000  1.0 0.0988055587
C  C13  1  0.47680000  0.80720000  0.79800000  1.0 0.0874014815
C  C14  1  0.42850000  0.53230000  0.03900000  1.0 0.0801094461
C  C15  1  0.57900000  0.57860000  0.93170000  1.0 -0.016567712
C  C16  1  0.51740000  0.61720000  0.97850000  1.0 -0.1821022162
C  C17  1  0.94506000  0.13334000  0.07040000  1.0 0.5816405138
C  C18  1  0.90144000  0.14876000  0.97050000  1.0 -0.0414255856
C  C19  1  0.85702000  0.05118000  0.91410000  1.0 0.0620395301
C  C20  1  0.82481000  0.16639000  0.78690000  1.0 0.0342812484
C  C21  1  0.87063000  0.26877000  0.83910000  1.0 0.0801094461
C  C22  1  0.90792000  0.25968000  0.93260000  1.0 -0.1411817836
C  C23  1  0.89060000  0.51300000  0.68540000  1.0 0.0874014815
C  C24  1  0.89097000  0.47963000  0.82870000  1.0 -0.0414255856
C  C25  1  0.31966000  0.31434000  0.37480000  1.0 0.4646270594
C  C26  1  0.40860000  0.40120000  0.44720000  1.0 -0.0002227526
C  C27  1  0.36990000  0.46270000  0.49400000  1.0 -0.1889724115
C  C28  1  0.45490000  0.55170000  0.55450000  1.0 0.0988055587
C  C29  1  0.80720000  0.47680000  0.70200000  1.0 0.0874014815
C  C30  1  0.53230000  0.42850000  0.46100000  1.0 0.0801094461
C  C31  1  0.57860000  0.57900000  0.56830000  1.0 -0.016567712
C  C32  1  0.61720000  0.51740000  0.52150000  1.0 -0.1821022162
C  C33  1  0.86666000  0.05494000  0.57040000  1.0 0.5816405138
C  C34  1  0.85124000  0.09856000  0.47050000  1.0 -0.0414255856
C  C35  1  0.94882000  0.14298000  0.41410000  1.0 0.0620395301
C  C36  1  0.83361000  0.17519000  0.28690000  1.0 0.0342812484
C  C37  1  0.73123000  0.12937000  0.33910000  1.0 0.0801094461
C  C38  1  0.74032000  0.09208000  0.43260000  1.0 -0.1411817836
C  C39  1  0.48700000  0.10940000  0.18540000  1.0 0.0874014815
C  C40  1  0.52037000  0.10903000  0.32870000  1.0 -0.0414255856
C  C41  1  0.68566000  0.68034000  0.87480000  1.0 0.4646270594
C  C42  1  0.59880000  0.59140000  0.94720000  1.0 -0.0002227526
C  C43  1  0.53730000  0.63010000  0.99400000  1.0 -0.1889724115
C  C44  1  0.44830000  0.54510000  0.05450000  1.0 0.0988055587
C  C45  1  0.52320000  0.19280000  0.20200000  1.0 0.0874014815
C  C46  1  0.57150000  0.46770000  0.96100000  1.0 0.0801094461
C  C47  1  0.42100000  0.42140000  0.06830000  1.0 -0.016567712
C  C48  1  0.48260000  0.38280000  0.02150000  1.0 -0.1821022162
C  C49  1  0.05494000  0.86666000  0.92960000  1.0 0.5816405138
C  C50  1  0.09856000  0.85124000  0.02950000  1.0 -0.0414255856
C  C51  1  0.14298000  0.94882000  0.08590000  1.0 0.0620395301
C  C52  1  0.17519000  0.83361000  0.21310000  1.0 0.0342812484
C  C53  1  0.12937000  0.73123000  0.16090000  1.0 0.0801094461
C  C54  1  0.09208000  0.74032000  0.06740000  1.0 -0.1411817836
C  C55  1  0.10940000  0.48700000  0.31460000  1.0 0.0801094461
C  C56  1  0.10903000  0.52037000  0.17130000  1.0 -0.0414255856
C  C57  1  0.68034000  0.68566000  0.62520000  1.0 0.4646270594
C  C58  1  0.59140000  0.59880000  0.55280000  1.0 -0.0002227526
C  C59  1  0.63010000  0.53730000  0.50600000  1.0 -0.1889724115
C  C60  1  0.54510000  0.44830000  0.44550000  1.0 0.0988055587
C  C61  1  0.19280000  0.52320000  0.29800000  1.0 0.0874014815
C  C62  1  0.46770000  0.57150000  0.53900000  1.0 0.0801094461
C  C63  1  0.42140000  0.42100000  0.43170000  1.0 -0.016567712
C  C64  1  0.38280000  0.48260000  0.47850000  1.0 -0.1821022162
N  N1  1  0.05920000  0.81840000  0.67567000  1.0 -0.2557673732
N  N2  1  0.38063000  0.87817000  0.70560000  1.0 0.1503520181
N  N3  1  0.40370000  0.88250000  0.80030000  1.0 -0.127453653
N  N4  1  0.56218000  0.89262000  0.73720000  1.0 -0.2340314889
N  N5  1  0.60240000  0.40920000  0.89700000  1.0 -0.3535027558
N  N6  1  0.36420000  0.79180000  0.78370000  1.0 -0.1411817836
N  N7  1  0.81840000  0.05920000  0.82433000  1.0 -0.2549975196
N  N8  1  0.87817000  0.38063000  0.79440000  1.0 0.1503520181
N  N9  1  0.88250000  0.40370000  0.69970000  1.0 -0.127453653
N  N10  1  0.89262000  0.56218000  0.76280000  1.0 -0.2340314889
N  N11  1  0.40920000  0.60240000  0.60300000  1.0 -0.3535027558
N  N12  1  0.79180000  0.36420000  0.71630000  1.0 -0.1411817836
N  N13  1  0.94080000  0.18160000  0.32433000  1.0 -0.2549975196
N  N14  1  0.61937000  0.12183000  0.29440000  1.0 0.1503520181
N  N15  1  0.59630000  0.11750000  0.19970000  1.0 -0.127453653
N  N16  1  0.43782000  0.10738000  0.26280000  1.0 -0.2340314889
N  N17  1  0.39760000  0.59080000  0.10300000  1.0 -0.3535027558
N  N18  1  0.63580000  0.20820000  0.21630000  1.0 -0.1411817836
N  N19  1  0.18160000  0.94080000  0.17567000  1.0 -0.2549975196
N  N20  1  0.12183000  0.61937000  0.20560000  1.0 0.1503520181
N  N21  1  0.11750000  0.59630000  0.30030000  1.0 -0.127453653
N  N22  1  0.10738000  0.43782000  0.23720000  1.0 -0.2340314889
N  N23  1  0.59080000  0.39760000  0.39700000  1.0 -0.3535027558
N  N24  1  0.20820000  0.63580000  0.28370000  1.0 -0.1411817836
O  O1  1  0.03244000  0.94096000  0.40166000  1.0 -0.5308697054
O  O2  1  0.22675000  0.98545000  0.38268000  1.0 -0.5857032219
O  O3  1  0.25238000  0.35322000  0.16057000  1.0 -0.5082527378
O  O4  1  0.30570000  0.21330000  0.13877000  1.0 -0.5418476144
O  O5  1  0.94096000  0.03244000  0.09834000  1.0 -0.5308697054
O  O6  1  0.98545000  0.22675000  0.11732000  1.0 -0.5843150297
O  O7  1  0.35322000  0.25238000  0.33943000  1.0 -0.5082527378
O  O8  1  0.21330000  0.30570000  0.36123000  1.0 -0.5418476144
O  O9  1  0.96756000  0.05904000  0.59834000  1.0 -0.5308697054
O  O10  1  0.77325000  0.01455000  0.61732000  1.0 -0.5843150297
O  O11  1  0.74762000  0.64678000  0.83943000  1.0 -0.5082527378
O  O12  1  0.69430000  0.78670000  0.86123000  1.0 -0.5418476144
O  O13  1  0.05904000  0.96756000  0.90166000  1.0 -0.5308697054
O  O14  1  0.01455000  0.77325000  0.88268000  1.0 -0.5857032219
O  O15  1  0.64678000  0.74762000  0.66057000  1.0 -0.5082527378
O  O16  1  0.78670000  0.69430000  0.63877000  1.0 -0.5418476144
O  O17  1  0.08370000  0.08370000  0.25000000  1.0 -0.7828986923
O  O18  1  0.91630000  0.91630000  0.75000000  1.0 -0.7828986923
