# DDEC6 charges by PACMAN v1.1 (https://github.com/mtap-research/PACMAN-charge/)
data_YEKHUU_ASR_pacman
_symmetry_space_group_name_H-M   'P 1'
_cell_length_a   14.23200000
_cell_length_b   20.36600000
_cell_length_c   29.83400000
_cell_angle_alpha   90.00000000
_cell_angle_beta   117.60500000
_cell_angle_gamma   90.00000000
_symmetry_Int_Tables_number   1
_chemical_formula_structural   ZnH14C17N2O5
_chemical_formula_sum   'Zn8 H112 C136 N16 O40'
_cell_volume   7662.96504032
_cell_formula_units_Z   8
loop_
 _symmetry_equiv_pos_site_id
 _symmetry_equiv_pos_as_xyz
  1  'x, y, z'
loop_
 _atom_site_type_symbol
 _atom_site_label
 _atom_site_symmetry_multiplicity
 _atom_site_fract_x
 _atom_site_fract_y
 _atom_site_fract_z
 _atom_site_occupancy
 _atom_site_charge
Zn  Zn1  1  0.73622000  0.95529000  0.69990000  1.0 1.0127898651
Zn  Zn2  1  0.91968000  0.98879000  0.66438000  1.0 0.86870489
Zn  Zn3  1  0.73622000  0.54471000  0.19990000  1.0 1.0127898651
Zn  Zn4  1  0.91968000  0.51121000  0.16438000  1.0 0.86870489
Zn  Zn5  1  0.26378000  0.45529000  0.80010000  1.0 1.0127898651
Zn  Zn6  1  0.08032000  0.48879000  0.83562000  1.0 0.86870489
Zn  Zn7  1  0.26378000  0.04471000  0.30010000  1.0 1.0127898651
Zn  Zn8  1  0.08032000  0.01121000  0.33562000  1.0 0.86870489
H  H1  1  0.07700000  0.31180000  0.87860000  1.0 0.2895908751
H  H2  1  0.08680000  0.36690000  0.94050000  1.0 0.2895908751
H  H3  1  0.17730000  0.64620000  0.86930000  1.0 0.2895908751
H  H4  1  0.29920000  0.61010000  0.94060000  1.0 0.2825481791
H  H5  1  0.81790000  0.12040000  0.79270000  1.0 0.129675675
H  H6  1  0.86540000  0.20450000  0.84650000  1.0 0.1398555416
H  H7  1  0.07350000  0.14780000  0.77000000  1.0 0.1398555416
H  H8  1  0.22750000  0.21390000  0.86240000  1.0 0.1476024934
H  H9  1  0.17860000  0.25210000  0.80950000  1.0 0.1398555416
H  H10  1  0.17160000  0.28370000  0.85700000  1.0 0.129675675
H  H11  1  0.87950000  0.31630000  0.96250000  1.0 0.129675675
H  H12  1  0.84180000  0.35850000  0.02540000  1.0 0.1111777156
H  H13  1  0.09910000  0.47270000  0.07450000  1.0 0.129675675
H  H14  1  0.24010000  0.40670000  0.03250000  1.0 0.1398555416
H  H15  1  0.16820000  0.44020000  0.97880000  1.0 0.129675675
H  H16  1  0.20290000  0.48130000  0.02980000  1.0 0.1398555416
H  H17  1  0.15520000  0.84720000  0.76180000  1.0 0.129675675
H  H18  1  0.26440000  0.76850000  0.82110000  1.0 0.1398555416
H  H19  1  0.91210000  0.79710000  0.78690000  1.0 0.129675675
H  H20  1  0.03160000  0.69860000  0.88880000  1.0 0.1398555416
H  H21  1  0.91820000  0.71510000  0.84260000  1.0 0.1398555416
H  H22  1  0.98720000  0.65580000  0.83810000  1.0 0.1476024934
H  H23  1  0.53020000  0.69800000  0.96670000  1.0 0.129675675
H  H24  1  0.69590000  0.67700000  0.03540000  1.0 0.129675675
H  H25  1  0.56800000  0.53160000  0.07880000  1.0 0.1231234122
H  H26  1  0.31620000  0.57250000  0.01940000  1.0 0.1476024934
H  H27  1  0.32810000  0.52130000  0.98170000  1.0 0.1398555416
H  H28  1  0.38960000  0.50890000  0.04150000  1.0 0.1476024934
H  H29  1  0.07700000  0.18820000  0.37860000  1.0 0.2895908751
H  H30  1  0.08680000  0.13310000  0.44050000  1.0 0.2895908751
H  H31  1  0.17730000  0.85380000  0.36930000  1.0 0.2895908751
H  H32  1  0.29920000  0.88990000  0.44060000  1.0 0.2825481791
H  H33  1  0.81790000  0.37960000  0.29270000  1.0 0.129675675
H  H34  1  0.86540000  0.29550000  0.34650000  1.0 0.1398555416
H  H35  1  0.07350000  0.35220000  0.27000000  1.0 0.1398555416
H  H36  1  0.22750000  0.28610000  0.36240000  1.0 0.1476024934
H  H37  1  0.17860000  0.24790000  0.30950000  1.0 0.1398555416
H  H38  1  0.17160000  0.21630000  0.35700000  1.0 0.129675675
H  H39  1  0.87950000  0.18370000  0.46250000  1.0 0.129675675
H  H40  1  0.84180000  0.14150000  0.52540000  1.0 0.1111777156
H  H41  1  0.09910000  0.02730000  0.57450000  1.0 0.129675675
H  H42  1  0.24010000  0.09330000  0.53250000  1.0 0.1398555416
H  H43  1  0.16820000  0.05980000  0.47880000  1.0 0.129675675
H  H44  1  0.20290000  0.01870000  0.52980000  1.0 0.1398555416
H  H45  1  0.15520000  0.65280000  0.26180000  1.0 0.129675675
H  H46  1  0.26440000  0.73150000  0.32110000  1.0 0.1398555416
H  H47  1  0.91210000  0.70290000  0.28690000  1.0 0.129675675
H  H48  1  0.03160000  0.80140000  0.38880000  1.0 0.1398555416
H  H49  1  0.91820000  0.78490000  0.34260000  1.0 0.1398555416
H  H50  1  0.98720000  0.84420000  0.33810000  1.0 0.1476024934
H  H51  1  0.53020000  0.80200000  0.46670000  1.0 0.129675675
H  H52  1  0.69590000  0.82300000  0.53540000  1.0 0.129675675
H  H53  1  0.56800000  0.96840000  0.57880000  1.0 0.1231234122
H  H54  1  0.31620000  0.92750000  0.51940000  1.0 0.1476024934
H  H55  1  0.32810000  0.97870000  0.48170000  1.0 0.1398555416
H  H56  1  0.38960000  0.99110000  0.54150000  1.0 0.1476024934
H  H57  1  0.92300000  0.81180000  0.62140000  1.0 0.2895908751
H  H58  1  0.91320000  0.86690000  0.55950000  1.0 0.2895908751
H  H59  1  0.82270000  0.14620000  0.63070000  1.0 0.2895908751
H  H60  1  0.70080000  0.11010000  0.55940000  1.0 0.2825481791
H  H61  1  0.18210000  0.62040000  0.70730000  1.0 0.129675675
H  H62  1  0.13460000  0.70450000  0.65350000  1.0 0.1398555416
H  H63  1  0.92650000  0.64780000  0.73000000  1.0 0.1398555416
H  H64  1  0.77250000  0.71390000  0.63760000  1.0 0.1476024934
H  H65  1  0.82140000  0.75210000  0.69050000  1.0 0.1398555416
H  H66  1  0.82840000  0.78370000  0.64300000  1.0 0.129675675
H  H67  1  0.12050000  0.81630000  0.53750000  1.0 0.129675675
H  H68  1  0.15820000  0.85850000  0.47460000  1.0 0.1111777156
H  H69  1  0.90090000  0.97270000  0.42550000  1.0 0.129675675
H  H70  1  0.75990000  0.90670000  0.46750000  1.0 0.1476024934
H  H71  1  0.83180000  0.94020000  0.52120000  1.0 0.129675675
H  H72  1  0.79710000  0.98130000  0.47020000  1.0 0.1398555416
H  H73  1  0.84480000  0.34720000  0.73820000  1.0 0.129675675
H  H74  1  0.73560000  0.26850000  0.67890000  1.0 0.1398555416
H  H75  1  0.08790000  0.29710000  0.71310000  1.0 0.129675675
H  H76  1  0.96840000  0.19860000  0.61120000  1.0 0.1398555416
H  H77  1  0.08180000  0.21510000  0.65740000  1.0 0.1398555416
H  H78  1  0.01280000  0.15580000  0.66190000  1.0 0.1476024934
H  H79  1  0.46980000  0.19800000  0.53330000  1.0 0.129675675
H  H80  1  0.30410000  0.17700000  0.46460000  1.0 0.129675675
H  H81  1  0.43200000  0.03160000  0.42120000  1.0 0.1231234122
H  H82  1  0.68380000  0.07250000  0.48060000  1.0 0.1476024934
H  H83  1  0.67190000  0.02130000  0.51830000  1.0 0.1398555416
H  H84  1  0.61040000  0.00890000  0.45850000  1.0 0.1476024934
H  H85  1  0.92300000  0.68820000  0.12140000  1.0 0.2895908751
H  H86  1  0.91320000  0.63310000  0.05950000  1.0 0.2895908751
H  H87  1  0.82270000  0.35380000  0.13070000  1.0 0.2895908751
H  H88  1  0.70080000  0.38990000  0.05940000  1.0 0.2825481791
H  H89  1  0.18210000  0.87960000  0.20730000  1.0 0.129675675
H  H90  1  0.13460000  0.79550000  0.15350000  1.0 0.1398555416
H  H91  1  0.92650000  0.85220000  0.23000000  1.0 0.1398555416
H  H92  1  0.77250000  0.78610000  0.13760000  1.0 0.1476024934
H  H93  1  0.82140000  0.74790000  0.19050000  1.0 0.1398555416
H  H94  1  0.82840000  0.71630000  0.14300000  1.0 0.129675675
H  H95  1  0.12050000  0.68370000  0.03750000  1.0 0.129675675
H  H96  1  0.15820000  0.64150000  0.97460000  1.0 0.1111777156
H  H97  1  0.90090000  0.52730000  0.92550000  1.0 0.129675675
H  H98  1  0.75990000  0.59330000  0.96750000  1.0 0.1398555416
H  H99  1  0.83180000  0.55980000  0.02120000  1.0 0.129675675
H  H100  1  0.79710000  0.51870000  0.97020000  1.0 0.1398555416
H  H101  1  0.84480000  0.15280000  0.23820000  1.0 0.129675675
H  H102  1  0.73560000  0.23150000  0.17890000  1.0 0.1398555416
H  H103  1  0.08790000  0.20290000  0.21310000  1.0 0.129675675
H  H104  1  0.96840000  0.30140000  0.11120000  1.0 0.1398555416
H  H105  1  0.08180000  0.28490000  0.15740000  1.0 0.1398555416
H  H106  1  0.01280000  0.34420000  0.16190000  1.0 0.1476024934
H  H107  1  0.46980000  0.30200000  0.03330000  1.0 0.129675675
H  H108  1  0.30410000  0.32300000  0.96460000  1.0 0.129675675
H  H109  1  0.43200000  0.46840000  0.92120000  1.0 0.1231234122
H  H110  1  0.68380000  0.42750000  0.98060000  1.0 0.1476024934
H  H111  1  0.67190000  0.47870000  0.01830000  1.0 0.1398555416
H  H112  1  0.61040000  0.49110000  0.95850000  1.0 0.1476024934
C  C1  1  0.89850000  0.07330000  0.73100000  1.0 0.584917416
C  C2  1  0.94020000  0.12800000  0.77540000  1.0 -0.0189739515
C  C3  1  0.88050000  0.14440000  0.79980000  1.0 -0.097771773
C  C4  1  0.90980000  0.19230000  0.83200000  1.0 -0.1457120579
C  C5  1  0.00370000  0.22640000  0.84620000  1.0 0.1476024934
C  C6  1  0.06810000  0.20980000  0.82430000  1.0 0.0927683135
C  C7  1  0.03290000  0.15930000  0.78670000  1.0 -0.1779917401
C  C8  1  0.16990000  0.24260000  0.83960000  1.0 -0.4479822915
C  C9  1  0.00710000  0.28730000  0.91980000  1.0 0.605395903
C  C10  1  0.01640000  0.36650000  0.98290000  1.0 0.1719680253
C  C11  1  0.92620000  0.34750000  0.98600000  1.0 -0.1779917401
C  C12  1  0.90260000  0.37350000  0.02300000  1.0 -0.1340110105
C  C13  1  0.96690000  0.42050000  0.05570000  1.0 -0.0313736897
C  C14  1  0.05490000  0.44000000  0.05180000  1.0 -0.1779917401
C  C15  1  0.08290000  0.41500000  0.01660000  1.0 0.0996084857
C  C16  1  0.18240000  0.43780000  0.01420000  1.0 -0.4590503376
C  C17  1  0.93950000  0.44920000  0.09530000  1.0 0.5578914184
C  C18  1  0.96220000  0.88510000  0.73830000  1.0 0.5890993137
C  C19  1  0.02890000  0.83310000  0.77290000  1.0 -0.0589267489
C  C20  1  0.12840000  0.82230000  0.78030000  1.0 -0.097771773
C  C21  1  0.19330000  0.77450000  0.81510000  1.0 -0.1892031383
C  C22  1  0.15260000  0.73670000  0.84040000  1.0 0.1907668274
C  C23  1  0.04200000  0.74630000  0.83080000  1.0 0.1111777156
C  C24  1  0.98520000  0.79230000  0.79600000  1.0 -0.1583944958
C  C25  1  0.99020000  0.69990000  0.85190000  1.0 -0.4479822915
C  C26  1  0.31390000  0.69020000  0.91030000  1.0 0.6156549353
C  C27  1  0.44930000  0.62910000  0.98310000  1.0 0.1719680253
C  C28  1  0.53720000  0.66400000  0.98990000  1.0 -0.1779917401
C  C29  1  0.63640000  0.65060000  0.02990000  1.0 -0.113757002
C  C30  1  0.64740000  0.60000000  0.06090000  1.0 -0.0379334678
C  C31  1  0.55920000  0.56610000  0.05570000  1.0 -0.1779917401
C  C32  1  0.45800000  0.58020000  0.01800000  1.0 0.0927683135
C  C33  1  0.36500000  0.54250000  0.01490000  1.0 -0.4590503376
C  C34  1  0.75680000  0.57830000  0.10160000  1.0 0.5709845472
C  C35  1  0.89850000  0.42670000  0.23100000  1.0 0.5890993137
C  C36  1  0.94020000  0.37200000  0.27540000  1.0 -0.0189739515
C  C37  1  0.88050000  0.35560000  0.29980000  1.0 -0.097771773
C  C38  1  0.90980000  0.30770000  0.33200000  1.0 -0.1457120579
C  C39  1  0.00370000  0.27360000  0.34620000  1.0 0.1476024934
C  C40  1  0.06810000  0.29020000  0.32430000  1.0 0.0927683135
C  C41  1  0.03290000  0.34070000  0.28670000  1.0 -0.1779917401
C  C42  1  0.16990000  0.25740000  0.33960000  1.0 -0.4479822915
C  C43  1  0.00710000  0.21270000  0.41980000  1.0 0.605395903
C  C44  1  0.01640000  0.13350000  0.48290000  1.0 0.1719680253
C  C45  1  0.92620000  0.15250000  0.48600000  1.0 -0.1779917401
C  C46  1  0.90260000  0.12650000  0.52300000  1.0 -0.1340110105
C  C47  1  0.96690000  0.07950000  0.55570000  1.0 -0.0313736897
C  C48  1  0.05490000  0.06000000  0.55180000  1.0 -0.1779917401
C  C49  1  0.08290000  0.08500000  0.51660000  1.0 0.0996084857
C  C50  1  0.18240000  0.06220000  0.51420000  1.0 -0.4590503376
C  C51  1  0.93950000  0.05080000  0.59530000  1.0 0.5578914184
C  C52  1  0.96220000  0.61490000  0.23830000  1.0 0.600075354
C  C53  1  0.02890000  0.66690000  0.27290000  1.0 -0.0589267489
C  C54  1  0.12840000  0.67770000  0.28030000  1.0 -0.097771773
C  C55  1  0.19330000  0.72550000  0.31510000  1.0 -0.1892031383
C  C56  1  0.15260000  0.76330000  0.34040000  1.0 0.1907668274
C  C57  1  0.04200000  0.75370000  0.33080000  1.0 0.1111777156
C  C58  1  0.98520000  0.70770000  0.29600000  1.0 -0.1583944958
C  C59  1  0.99020000  0.80010000  0.35190000  1.0 -0.4479822915
C  C60  1  0.31390000  0.80980000  0.41030000  1.0 0.6156549353
C  C61  1  0.44930000  0.87090000  0.48310000  1.0 0.1719680253
C  C62  1  0.53720000  0.83600000  0.48990000  1.0 -0.1779917401
C  C63  1  0.63640000  0.84940000  0.52990000  1.0 -0.113757002
C  C64  1  0.64740000  0.90000000  0.56090000  1.0 -0.0379334678
C  C65  1  0.55920000  0.93390000  0.55570000  1.0 -0.1779917401
C  C66  1  0.45800000  0.91980000  0.51800000  1.0 0.0927683135
C  C67  1  0.36500000  0.95750000  0.51490000  1.0 -0.4590503376
C  C68  1  0.75680000  0.92170000  0.60160000  1.0 0.5709845472
C  C69  1  0.10150000  0.57330000  0.76900000  1.0 0.5890993137
C  C70  1  0.05980000  0.62800000  0.72460000  1.0 -0.0189739515
C  C71  1  0.11950000  0.64440000  0.70020000  1.0 -0.097771773
C  C72  1  0.09020000  0.69230000  0.66800000  1.0 -0.1457120579
C  C73  1  0.99630000  0.72640000  0.65380000  1.0 0.1476024934
C  C74  1  0.93190000  0.70980000  0.67570000  1.0 0.0927683135
C  C75  1  0.96710000  0.65930000  0.71330000  1.0 -0.1779917401
C  C76  1  0.83010000  0.74260000  0.66040000  1.0 -0.4479822915
C  C77  1  0.99290000  0.78730000  0.58020000  1.0 0.600075354
C  C78  1  0.98360000  0.86650000  0.51710000  1.0 0.1719680253
C  C79  1  0.07380000  0.84750000  0.51400000  1.0 -0.1779917401
C  C80  1  0.09740000  0.87350000  0.47700000  1.0 -0.1340110105
C  C81  1  0.03310000  0.92050000  0.44430000  1.0 -0.0313736897
C  C82  1  0.94510000  0.94000000  0.44820000  1.0 -0.1779917401
C  C83  1  0.91710000  0.91500000  0.48340000  1.0 0.0996084857
C  C84  1  0.81760000  0.93780000  0.48580000  1.0 -0.4590503376
C  C85  1  0.06050000  0.94920000  0.40470000  1.0 0.5578914184
C  C86  1  0.03780000  0.38510000  0.76170000  1.0 0.600075354
C  C87  1  0.97110000  0.33310000  0.72710000  1.0 -0.0589267489
C  C88  1  0.87160000  0.32230000  0.71970000  1.0 -0.097771773
C  C89  1  0.80670000  0.27450000  0.68490000  1.0 -0.1892031383
C  C90  1  0.84740000  0.23670000  0.65960000  1.0 0.1907668274
C  C91  1  0.95800000  0.24630000  0.66920000  1.0 0.1111777156
C  C92  1  0.01480000  0.29230000  0.70400000  1.0 -0.1583944958
C  C93  1  0.00980000  0.19990000  0.64810000  1.0 -0.4479822915
C  C94  1  0.68610000  0.19020000  0.58970000  1.0 0.6156549353
C  C95  1  0.55070000  0.12910000  0.51690000  1.0 0.1719680253
C  C96  1  0.46280000  0.16400000  0.51010000  1.0 -0.1779917401
C  C97  1  0.36360000  0.15060000  0.47010000  1.0 -0.113757002
C  C98  1  0.35260000  0.10000000  0.43910000  1.0 -0.0379334678
C  C99  1  0.44080000  0.06610000  0.44430000  1.0 -0.1779917401
C  C100  1  0.54200000  0.08020000  0.48200000  1.0 0.0927683135
C  C101  1  0.63500000  0.04250000  0.48510000  1.0 -0.4590503376
C  C102  1  0.24320000  0.07830000  0.39840000  1.0 0.5709845472
C  C103  1  0.10150000  0.92670000  0.26900000  1.0 0.5890993137
C  C104  1  0.05980000  0.87200000  0.22460000  1.0 -0.0189739515
C  C105  1  0.11950000  0.85560000  0.20020000  1.0 -0.097771773
C  C106  1  0.09020000  0.80770000  0.16800000  1.0 -0.1457120579
C  C107  1  0.99630000  0.77360000  0.15380000  1.0 0.1476024934
C  C108  1  0.93190000  0.79020000  0.17570000  1.0 0.0927683135
C  C109  1  0.96710000  0.84070000  0.21330000  1.0 -0.1779917401
C  C110  1  0.83010000  0.75740000  0.16040000  1.0 -0.4479822915
C  C111  1  0.99290000  0.71270000  0.08020000  1.0 0.600075354
C  C112  1  0.98360000  0.63350000  0.01710000  1.0 0.1719680253
C  C113  1  0.07380000  0.65250000  0.01400000  1.0 -0.1779917401
C  C114  1  0.09740000  0.62650000  0.97700000  1.0 -0.1340110105
C  C115  1  0.03310000  0.57950000  0.94430000  1.0 -0.0313736897
C  C116  1  0.94510000  0.56000000  0.94820000  1.0 -0.1779917401
C  C117  1  0.91710000  0.58500000  0.98340000  1.0 0.0996084857
C  C118  1  0.81760000  0.56220000  0.98580000  1.0 -0.4590503376
C  C119  1  0.06050000  0.55080000  0.90470000  1.0 0.5578914184
C  C120  1  0.03780000  0.11490000  0.26170000  1.0 0.5890993137
C  C121  1  0.97110000  0.16690000  0.22710000  1.0 -0.0589267489
C  C122  1  0.87160000  0.17770000  0.21970000  1.0 -0.097771773
C  C123  1  0.80670000  0.22550000  0.18490000  1.0 -0.1892031383
C  C124  1  0.84740000  0.26330000  0.15960000  1.0 0.1907668274
C  C125  1  0.95800000  0.25370000  0.16920000  1.0 0.1111777156
C  C126  1  0.01480000  0.20770000  0.20400000  1.0 -0.1583944958
C  C127  1  0.00980000  0.30010000  0.14810000  1.0 -0.4479822915
C  C128  1  0.68610000  0.30980000  0.08970000  1.0 0.6156549353
C  C129  1  0.55070000  0.37090000  0.01690000  1.0 0.1719680253
C  C130  1  0.46280000  0.33600000  0.01010000  1.0 -0.1779917401
C  C131  1  0.36360000  0.34940000  0.97010000  1.0 -0.113757002
C  C132  1  0.35260000  0.40000000  0.93910000  1.0 -0.0379334678
C  C133  1  0.44080000  0.43390000  0.94430000  1.0 -0.1779917401
C  C134  1  0.54200000  0.41980000  0.98200000  1.0 0.0927683135
C  C135  1  0.63500000  0.45750000  0.98510000  1.0 -0.4590503376
C  C136  1  0.24320000  0.42170000  0.89840000  1.0 0.5709845472
N  N1  1  0.03660000  0.28120000  0.88150000  1.0 -0.4399893683
N  N2  1  0.04250000  0.34290000  0.94660000  1.0 -0.3882127059
N  N3  1  0.20950000  0.68420000  0.87300000  1.0 -0.4347502988
N  N4  1  0.34720000  0.63950000  0.94390000  1.0 -0.4073575538
N  N5  1  0.03660000  0.21880000  0.38150000  1.0 -0.4399893683
N  N6  1  0.04250000  0.15710000  0.44660000  1.0 -0.3882127059
N  N7  1  0.20950000  0.81580000  0.37300000  1.0 -0.4399893683
N  N8  1  0.34720000  0.86050000  0.44390000  1.0 -0.4073575538
N  N9  1  0.96340000  0.78120000  0.61850000  1.0 -0.4399893683
N  N10  1  0.95750000  0.84290000  0.55340000  1.0 -0.3882127059
N  N11  1  0.79050000  0.18420000  0.62700000  1.0 -0.4347502988
N  N12  1  0.65280000  0.13950000  0.55610000  1.0 -0.4073575538
N  N13  1  0.96340000  0.71880000  0.11850000  1.0 -0.4399893683
N  N14  1  0.95750000  0.65710000  0.05340000  1.0 -0.3882127059
N  N15  1  0.79050000  0.31580000  0.12700000  1.0 -0.4347502988
N  N16  1  0.65280000  0.36050000  0.05610000  1.0 -0.4073575538
O  O1  1  0.82120000  0.03790000  0.72980000  1.0 -0.6193224814
O  O2  1  0.95260000  0.06520000  0.71070000  1.0 -0.4753431779
O  O3  1  0.95570000  0.24500000  0.92900000  1.0 -0.4976140883
O  O4  1  0.85400000  0.43190000  0.09500000  1.0 -0.5865331989
O  O5  1  0.00250000  0.48940000  0.12620000  1.0 -0.5100199458
O  O6  1  0.86790000  0.89600000  0.73380000  1.0 -0.6193224814
O  O7  1  0.99890000  0.91860000  0.71470000  1.0 -0.5100199458
O  O8  1  0.37040000  0.73690000  0.91230000  1.0 -0.4976140883
O  O9  1  0.76280000  0.53750000  0.13370000  1.0 -0.5596075159
O  O10  1  0.83760000  0.60350000  0.10120000  1.0 -0.5596075159
O  O11  1  0.82120000  0.46210000  0.22980000  1.0 -0.6193224814
O  O12  1  0.95260000  0.43480000  0.21070000  1.0 -0.4753431779
O  O13  1  0.95570000  0.25500000  0.42900000  1.0 -0.4976140883
O  O14  1  0.85400000  0.06810000  0.59500000  1.0 -0.5865331989
O  O15  1  0.00250000  0.01060000  0.62620000  1.0 -0.5100199458
O  O16  1  0.86790000  0.60400000  0.23380000  1.0 -0.6193224814
O  O17  1  0.99890000  0.58140000  0.21470000  1.0 -0.5100199458
O  O18  1  0.37040000  0.76310000  0.41230000  1.0 -0.4976140883
O  O19  1  0.76280000  0.96250000  0.63370000  1.0 -0.5596075159
O  O20  1  0.83760000  0.89650000  0.60120000  1.0 -0.5596075159
O  O21  1  0.17880000  0.53790000  0.77020000  1.0 -0.6193224814
O  O22  1  0.04740000  0.56520000  0.78930000  1.0 -0.4739492786
O  O23  1  0.04430000  0.74500000  0.57100000  1.0 -0.4976140883
O  O24  1  0.14600000  0.93190000  0.40500000  1.0 -0.5865331989
O  O25  1  0.99750000  0.98940000  0.37380000  1.0 -0.5100199458
O  O26  1  0.13210000  0.39600000  0.76620000  1.0 -0.6193224814
O  O27  1  0.00110000  0.41860000  0.78530000  1.0 -0.5100199458
O  O28  1  0.62960000  0.23690000  0.58770000  1.0 -0.4976140883
O  O29  1  0.23720000  0.03750000  0.36630000  1.0 -0.5596075159
O  O30  1  0.16240000  0.10350000  0.39880000  1.0 -0.5596075159
O  O31  1  0.17880000  0.96210000  0.27020000  1.0 -0.6193224814
O  O32  1  0.04740000  0.93480000  0.28930000  1.0 -0.4739492786
O  O33  1  0.04430000  0.75500000  0.07100000  1.0 -0.4976140883
O  O34  1  0.14600000  0.56810000  0.90500000  1.0 -0.5865331989
O  O35  1  0.99750000  0.51060000  0.87380000  1.0 -0.5100199458
O  O36  1  0.13210000  0.10400000  0.26620000  1.0 -0.6193224814
O  O37  1  0.00110000  0.08140000  0.28530000  1.0 -0.5100199458
O  O38  1  0.62960000  0.26310000  0.08770000  1.0 -0.4976140883
O  O39  1  0.23720000  0.46250000  0.86630000  1.0 -0.5596075159
O  O40  1  0.16240000  0.39650000  0.89880000  1.0 -0.5596075159
