# DDEC6 charges by PACMAN v1.1 (https://github.com/mtap-research/PACMAN-charge/)
data_YEKJAC_FSR_pacman
_symmetry_space_group_name_H-M   'P 1'
_cell_length_a   9.65450000
_cell_length_b   17.27170000
_cell_length_c   17.32600000
_cell_angle_alpha   66.50400000
_cell_angle_beta   77.10500000
_cell_angle_gamma   83.16300000
_symmetry_Int_Tables_number   1
_chemical_formula_structural   Mn2H20C31N4O11
_chemical_formula_sum   'Mn4 H40 C62 N8 O22'
_cell_volume   2581.28043863
_cell_formula_units_Z   2
loop_
 _symmetry_equiv_pos_site_id
 _symmetry_equiv_pos_as_xyz
  1  'x, y, z'
loop_
 _atom_site_type_symbol
 _atom_site_label
 _atom_site_symmetry_multiplicity
 _atom_site_fract_x
 _atom_site_fract_y
 _atom_site_fract_z
 _atom_site_occupancy
 _atom_site_charge
Mn  Mn1  1  0.66969000  0.97578000  0.96434000  1.0 1.0077081728
Mn  Mn2  1  0.95202000  0.10317000  0.96601000  1.0 1.0716790367
Mn  Mn3  1  0.33031000  0.02422000  0.03566000  1.0 1.0077081728
Mn  Mn4  1  0.04798000  0.89683000  0.03399000  1.0 1.0716790367
H  H1  1  0.47780000  0.12310000  0.41450000  1.0 0.2688225727
H  H2  1  0.37440000  0.11130000  0.53250000  1.0 0.2688225727
H  H3  1  0.60100000  0.47920000  0.37570000  1.0 0.2688225727
H  H4  1  0.58430000  0.38680000  0.49320000  1.0 0.2688225727
H  H5  1  0.38520000  0.00050000  0.20260000  1.0 0.1279969601
H  H6  1  0.29920000  0.01520000  0.33240000  1.0 0.1279969601
H  H7  1  0.64470000  0.14850000  0.29260000  1.0 0.1279969601
H  H8  1  0.72730000  0.13450000  0.16150000  1.0 0.1212771821
H  H9  1  0.08350000  0.97770000  0.59770000  1.0 0.138248448
H  H10  1  0.93630000  0.94050000  0.73240000  1.0 0.1279969601
H  H11  1  0.16250000  0.07870000  0.79830000  1.0 0.1212771821
H  H12  1  0.30470000  0.12140000  0.66130000  1.0 0.1279969601
H  H13  1  0.56660000  0.69900000  0.13850000  1.0 0.1279969601
H  H14  1  0.54290000  0.57170000  0.25300000  1.0 0.138248448
H  H15  1  0.84120000  0.63180000  0.34780000  1.0 0.138248448
H  H16  1  0.86660000  0.75990000  0.23160000  1.0 0.1279969601
H  H17  1  0.52150000  0.27050000  0.61420000  1.0 0.1212771821
H  H18  1  0.56740000  0.17170000  0.74310000  1.0 0.1212771821
H  H19  1  0.89990000  0.30400000  0.72160000  1.0 0.1212771821
H  H20  1  0.86090000  0.40200000  0.58930000  1.0 0.138248448
H  H21  1  0.52220000  0.87690000  0.58550000  1.0 0.2688225727
H  H22  1  0.62560000  0.88870000  0.46750000  1.0 0.2688225727
H  H23  1  0.39900000  0.52080000  0.62430000  1.0 0.2688225727
H  H24  1  0.41570000  0.61320000  0.50680000  1.0 0.2688225727
H  H25  1  0.61480000  0.99950000  0.79740000  1.0 0.1279969601
H  H26  1  0.70080000  0.98480000  0.66760000  1.0 0.1279969601
H  H27  1  0.35530000  0.85150000  0.70740000  1.0 0.1279969601
H  H28  1  0.27270000  0.86550000  0.83850000  1.0 0.1212771821
H  H29  1  0.91650000  0.02230000  0.40230000  1.0 0.138248448
H  H30  1  0.06370000  0.05950000  0.26760000  1.0 0.1279969601
H  H31  1  0.83750000  0.92130000  0.20170000  1.0 0.1212771821
H  H32  1  0.69530000  0.87860000  0.33870000  1.0 0.1279969601
H  H33  1  0.43340000  0.30100000  0.86150000  1.0 0.1279969601
H  H34  1  0.45710000  0.42830000  0.74700000  1.0 0.1279969601
H  H35  1  0.15880000  0.36820000  0.65220000  1.0 0.138248448
H  H36  1  0.13340000  0.24010000  0.76840000  1.0 0.1279969601
H  H37  1  0.47850000  0.72950000  0.38580000  1.0 0.1212771821
H  H38  1  0.43260000  0.82830000  0.25690000  1.0 0.1212771821
H  H39  1  0.10010000  0.69600000  0.27840000  1.0 0.1212771821
H  H40  1  0.13910000  0.59800000  0.41070000  1.0 0.138248448
C  C1  1  0.62240000  0.05230000  0.08790000  1.0 0.5996778814
C  C2  1  0.56550000  0.06580000  0.16920000  1.0 -0.0425704014
C  C3  1  0.43810000  0.03070000  0.22090000  1.0 -0.0979368468
C  C4  1  0.38700000  0.03900000  0.29830000  1.0 -0.1892181155
C  C5  1  0.46430000  0.08220000  0.32610000  1.0 0.2399818533
C  C6  1  0.59160000  0.11820000  0.27440000  1.0 -0.2032095385
C  C7  1  0.64060000  0.10970000  0.19650000  1.0 -0.0831151553
C  C8  1  0.30750000  0.05900000  0.46840000  1.0 0.5891983744
C  C9  1  0.21080000  0.05240000  0.61700000  1.0 0.2399818533
C  C10  1  0.09970000  0.99860000  0.63790000  1.0 -0.1892181155
C  C11  1  0.01340000  0.97620000  0.71830000  1.0 -0.0831151553
C  C12  1  0.03640000  0.00450000  0.77890000  1.0 -0.0425704014
C  C13  1  0.14580000  0.05850000  0.75760000  1.0 -0.0831151553
C  C14  1  0.23120000  0.08300000  0.67640000  1.0 -0.2151547414
C  C15  1  0.94090000  0.97820000  0.86450000  1.0 0.5891983744
C  C16  1  0.73170000  0.82680000  0.09900000  1.0 0.5665446031
C  C17  1  0.71850000  0.74290000  0.17330000  1.0 -0.0317193516
C  C18  1  0.62270000  0.68570000  0.18100000  1.0 -0.0831151553
C  C19  1  0.60850000  0.61070000  0.24900000  1.0 -0.1892181155
C  C20  1  0.68710000  0.58960000  0.31250000  1.0 0.2299979436
C  C21  1  0.78480000  0.64570000  0.30530000  1.0 -0.1892181155
C  C22  1  0.79960000  0.72140000  0.23640000  1.0 -0.0979368468
C  C23  1  0.71440000  0.47800000  0.45470000  1.0 0.5891983744
C  C24  1  0.68590000  0.34630000  0.58870000  1.0 0.2399818533
C  C25  1  0.59970000  0.27720000  0.63570000  1.0 -0.2124913873
C  C26  1  0.62650000  0.21890000  0.71240000  1.0 -0.0881034475
C  C27  1  0.73820000  0.22760000  0.74570000  1.0 -0.0317193516
C  C28  1  0.82340000  0.29690000  0.69910000  1.0 -0.0979368468
C  C29  1  0.80000000  0.35570000  0.62080000  1.0 -0.1892181155
C  C30  1  0.76860000  0.16380000  0.83000000  1.0 0.5891983744
C  C31  1  0.98200000  0.26630000  0.98140000  1.0 0.1616050708
C  C32  1  0.37760000  0.94770000  0.91210000  1.0 0.5996778814
C  C33  1  0.43450000  0.93420000  0.83080000  1.0 -0.0425704014
C  C34  1  0.56190000  0.96930000  0.77910000  1.0 -0.0979368468
C  C35  1  0.61300000  0.96100000  0.70170000  1.0 -0.1892181155
C  C36  1  0.53570000  0.91780000  0.67390000  1.0 0.2399818533
C  C37  1  0.40840000  0.88180000  0.72560000  1.0 -0.2032095385
C  C38  1  0.35940000  0.89030000  0.80350000  1.0 -0.0831151553
C  C39  1  0.69250000  0.94100000  0.53160000  1.0 0.5996778814
C  C40  1  0.78920000  0.94760000  0.38300000  1.0 0.2399818533
C  C41  1  0.90030000  0.00140000  0.36210000  1.0 -0.1892181155
C  C42  1  0.98660000  0.02380000  0.28170000  1.0 -0.0831151553
C  C43  1  0.96360000  0.99550000  0.22110000  1.0 -0.0425704014
C  C44  1  0.85420000  0.94150000  0.24240000  1.0 -0.0831151553
C  C45  1  0.76880000  0.91700000  0.32360000  1.0 -0.2124913873
C  C46  1  0.05910000  0.02180000  0.13550000  1.0 0.5891983744
C  C47  1  0.26830000  0.17320000  0.90100000  1.0 0.5665446031
C  C48  1  0.28150000  0.25710000  0.82670000  1.0 -0.0317193516
C  C49  1  0.37730000  0.31430000  0.81900000  1.0 -0.0831151553
C  C50  1  0.39150000  0.38930000  0.75100000  1.0 -0.1892181155
C  C51  1  0.31290000  0.41040000  0.68750000  1.0 0.2299979436
C  C52  1  0.21520000  0.35430000  0.69470000  1.0 -0.1892181155
C  C53  1  0.20040000  0.27860000  0.76360000  1.0 -0.0979368468
C  C54  1  0.28560000  0.52200000  0.54530000  1.0 0.5891983744
C  C55  1  0.31410000  0.65370000  0.41130000  1.0 0.2399818533
C  C56  1  0.40030000  0.72280000  0.36430000  1.0 -0.2124913873
C  C57  1  0.37350000  0.78110000  0.28760000  1.0 -0.0881034475
C  C58  1  0.26180000  0.77240000  0.25430000  1.0 -0.0317193516
C  C59  1  0.17660000  0.70310000  0.30090000  1.0 -0.0979368468
C  C60  1  0.20000000  0.64430000  0.37920000  1.0 -0.1892181155
C  C61  1  0.23140000  0.83620000  0.17000000  1.0 0.5891983744
C  C62  1  0.01800000  0.73370000  0.01860000  1.0 0.1538709658
N  N1  1  0.42300000  0.09200000  0.40482000  1.0 -0.4370058369
N  N2  1  0.30670000  0.07850000  0.53800000  1.0 -0.4276274708
N  N3  1  0.66010000  0.51110000  0.38090000  1.0 -0.4276274708
N  N4  1  0.65270000  0.40200000  0.50980000  1.0 -0.4370058369
N  N5  1  0.57700000  0.90800000  0.59518000  1.0 -0.4370058369
N  N6  1  0.69330000  0.92150000  0.46200000  1.0 -0.4276274708
N  N7  1  0.33990000  0.48890000  0.61910000  1.0 -0.4276274708
N  N8  1  0.34730000  0.59800000  0.49020000  1.0 -0.4370058369
O  O1  1  0.54400000  0.01903000  0.06034000  1.0 -0.5586164784
O  O2  1  0.74730000  0.07251000  0.05014000  1.0 -0.5586164784
O  O3  1  0.21680000  0.02030000  0.46270000  1.0 -0.4621872497
O  O4  1  0.83190000  0.93890000  0.87680000  1.0 -0.5207198453
O  O5  1  0.97080000  0.99767000  0.92310000  1.0 -0.6217053425
O  O6  1  0.64400000  0.84635000  0.04996000  1.0 -0.5092885387
O  O7  1  0.82600000  0.87544000  0.08935000  1.0 -0.5703102242
O  O8  1  0.80420000  0.50970000  0.46980000  1.0 -0.4621872497
O  O9  1  0.69770000  0.09828000  0.86439000  1.0 -0.5477431607
O  O10  1  0.86400000  0.18126000  0.85912000  1.0 -0.5703102242
O  O11  1  0.94730000  0.20320000  0.01250000  1.0 -0.2913273465
O  O12  1  0.45600000  0.98097000  0.93966000  1.0 -0.5586164784
O  O13  1  0.25270000  0.92749000  0.94986000  1.0 -0.5586164784
O  O14  1  0.78320000  0.97970000  0.53730000  1.0 -0.4621872497
O  O15  1  0.16810000  0.06110000  0.12320000  1.0 -0.5207198453
O  O16  1  0.02920000  0.00233000  0.07690000  1.0 -0.6217053425
O  O17  1  0.35600000  0.15365000  0.95004000  1.0 -0.5092885387
O  O18  1  0.17400000  0.12456000  0.91065000  1.0 -0.5703102242
O  O19  1  0.19580000  0.49030000  0.53020000  1.0 -0.4621872497
O  O20  1  0.30230000  0.90172000  0.13561000  1.0 -0.5477431607
O  O21  1  0.13600000  0.81874000  0.14088000  1.0 -0.5703102242
O  O22  1  0.05270000  0.79680000  0.98750000  1.0 -0.2913273465
