# DDEC6 charges by PACMAN v1.1 (https://github.com/mtap-research/PACMAN-charge/)
data_YELFED_ASR_pacman
_symmetry_space_group_name_H-M   'P 1'
_cell_length_a   19.52740000
_cell_length_b   19.52740000
_cell_length_c   10.11000000
_cell_angle_alpha   76.02630000
_cell_angle_beta   103.97400000
_cell_angle_gamma   41.39710000
_symmetry_Int_Tables_number   1
_chemical_formula_structural   Zn2H15C16O11
_chemical_formula_sum   'Zn8 H60 C64 O44'
_cell_volume   1861.57253895
_cell_formula_units_Z   4
loop_
 _symmetry_equiv_pos_site_id
 _symmetry_equiv_pos_as_xyz
  1  'x, y, z'
loop_
 _atom_site_type_symbol
 _atom_site_label
 _atom_site_symmetry_multiplicity
 _atom_site_fract_x
 _atom_site_fract_y
 _atom_site_fract_z
 _atom_site_occupancy
 _atom_site_charge
Zn  Zn1  1  0.28913000  0.89537000  0.73683000  1.0 0.9092932193
Zn  Zn2  1  0.34912000  0.96656000  0.13146000  1.0 0.9496464729
Zn  Zn3  1  0.89537000  0.28913000  0.76317000  1.0 0.9092932193
Zn  Zn4  1  0.96656000  0.34912000  0.36854000  1.0 0.9496464729
Zn  Zn5  1  0.71087000  0.10463000  0.26317000  1.0 0.9092932193
Zn  Zn6  1  0.65088000  0.03344000  0.86854000  1.0 0.9496464729
Zn  Zn7  1  0.10463000  0.71087000  0.23683000  1.0 0.9092932193
Zn  Zn8  1  0.03344000  0.65088000  0.63146000  1.0 0.9496464729
H  H1  1  0.14380000  0.87540000  0.05260000  1.0 0.1506157397
H  H2  1  0.81510000  0.67250000  0.45590000  1.0 0.1506157397
H  H3  1  0.06170000  0.42050000  0.70460000  1.0 0.1506157397
H  H4  1  0.14760000  0.86360000  0.30770000  1.0 0.161701329
H  H5  1  0.52330000  0.68730000  0.89900000  1.0 0.3341101333
H  H6  1  0.60440000  0.51340000  0.00450000  1.0 0.0780065779
H  H7  1  0.44840000  0.62460000  0.88340000  1.0 0.1506157397
H  H8  1  0.58000000  0.54540000  0.22400000  1.0 0.0099906731
H  H9  1  0.59640000  0.45460000  0.21790000  1.0 0.0727612394
H  H10  1  0.45020000  0.60860000  0.11620000  1.0 0.0780065779
H  H11  1  0.49280000  0.64060000  0.13230000  1.0 -0.0044500489
H  H12  1  0.59100000  0.62180000  0.17020000  1.0 0.0887885335
H  H13  1  0.68810000  0.41350000  0.29100000  1.0 0.0424037351
H  H14  1  0.75260000  0.41960000  0.23540000  1.0 0.1506157397
H  H15  1  0.64450000  0.46190000  0.10020000  1.0 0.0454325302
H  H16  1  0.87540000  0.14380000  0.44740000  1.0 0.1506157397
H  H17  1  0.67250000  0.81510000  0.04410000  1.0 0.1506157397
H  H18  1  0.42050000  0.06170000  0.79540000  1.0 0.1506157397
H  H19  1  0.86360000  0.14760000  0.19230000  1.0 0.161701329
H  H20  1  0.68730000  0.52330000  0.60100000  1.0 0.3341101333
H  H21  1  0.51340000  0.60440000  0.49550000  1.0 0.0780065779
H  H22  1  0.62460000  0.44840000  0.61660000  1.0 0.1506157397
H  H23  1  0.54540000  0.58000000  0.27600000  1.0 0.0099906731
H  H24  1  0.45460000  0.59640000  0.28210000  1.0 0.0727612394
H  H25  1  0.60860000  0.45020000  0.38380000  1.0 0.0780065779
H  H26  1  0.64060000  0.49280000  0.36770000  1.0 -0.0044500489
H  H27  1  0.62180000  0.59100000  0.32980000  1.0 0.0887885335
H  H28  1  0.41350000  0.68810000  0.20900000  1.0 0.0424037351
H  H29  1  0.41960000  0.75260000  0.26460000  1.0 0.1506157397
H  H30  1  0.46190000  0.64450000  0.39980000  1.0 0.0454325302
H  H31  1  0.85620000  0.12460000  0.94740000  1.0 0.1506157397
H  H32  1  0.18490000  0.32750000  0.54410000  1.0 0.1506157397
H  H33  1  0.93830000  0.57950000  0.29540000  1.0 0.1506157397
H  H34  1  0.85240000  0.13640000  0.69230000  1.0 0.161701329
H  H35  1  0.47670000  0.31270000  0.10100000  1.0 0.3341101333
H  H36  1  0.39560000  0.48660000  0.99550000  1.0 0.0780065779
H  H37  1  0.55160000  0.37540000  0.11660000  1.0 0.1506157397
H  H38  1  0.42000000  0.45460000  0.77600000  1.0 0.0099906731
H  H39  1  0.40360000  0.54540000  0.78210000  1.0 0.0727612394
H  H40  1  0.54980000  0.39140000  0.88380000  1.0 0.0780065779
H  H41  1  0.50720000  0.35940000  0.86770000  1.0 -0.0044500489
H  H42  1  0.40900000  0.37820000  0.82980000  1.0 0.0887885335
H  H43  1  0.31190000  0.58650000  0.70900000  1.0 0.0424037351
H  H44  1  0.24740000  0.58040000  0.76460000  1.0 0.1506157397
H  H45  1  0.35550000  0.53810000  0.89980000  1.0 0.0454325302
H  H46  1  0.12460000  0.85620000  0.55260000  1.0 0.1506157397
H  H47  1  0.32750000  0.18490000  0.95590000  1.0 0.1506157397
H  H48  1  0.57950000  0.93830000  0.20460000  1.0 0.1506157397
H  H49  1  0.13640000  0.85240000  0.80770000  1.0 0.161701329
H  H50  1  0.31270000  0.47670000  0.39900000  1.0 0.3341101333
H  H51  1  0.48660000  0.39560000  0.50450000  1.0 0.0780065779
H  H52  1  0.37540000  0.55160000  0.38340000  1.0 0.1506157397
H  H53  1  0.45460000  0.42000000  0.72400000  1.0 0.0099906731
H  H54  1  0.54540000  0.40360000  0.71790000  1.0 0.0727612394
H  H55  1  0.39140000  0.54980000  0.61620000  1.0 0.0780065779
H  H56  1  0.35940000  0.50720000  0.63230000  1.0 -0.0044500489
H  H57  1  0.37820000  0.40900000  0.67020000  1.0 0.0887885335
H  H58  1  0.58650000  0.31190000  0.79100000  1.0 0.0424037351
H  H59  1  0.58040000  0.24740000  0.73540000  1.0 0.1506157397
H  H60  1  0.53810000  0.35550000  0.60020000  1.0 0.0454325302
C  C1  1  0.09190000  0.24110000  0.84600000  1.0 0.5563721507
C  C2  1  0.25520000  0.91320000  0.98560000  1.0 0.5256709306
C  C3  1  0.17400000  0.88420000  0.12060000  1.0 -0.1504614341
C  C4  1  0.84580000  0.60020000  0.51800000  1.0 -0.1504614341
C  C5  1  0.98400000  0.45880000  0.65700000  1.0 -0.1423730464
C  C6  1  0.61560000  0.72520000  0.37270000  1.0 0.5193618982
C  C7  1  0.22470000  0.90470000  0.10060000  1.0 0.0454325302
C  C8  1  0.22330000  0.89870000  0.32160000  1.0 0.0780065779
C  C9  1  0.76670000  0.60950000  0.49300000  1.0 0.0974143668
C  C10  1  0.25310000  0.90330000  0.46510000  1.0 0.512007445
C  C11  1  0.17510000  0.87850000  0.26300000  1.0 -0.1504614341
C  C12  1  0.98270000  0.38870000  0.70870000  1.0 0.0974143668
C  C13  1  0.51910000  0.59050000  0.97800000  1.0 -0.0073379247
C  C14  1  0.53790000  0.54590000  0.15000000  1.0 -0.1291337163
C  C15  1  0.55340000  0.61300000  0.11240000  1.0 0.0152716216
C  C16  1  0.67100000  0.46300000  0.19200000  1.0 -0.2039657087
C  C17  1  0.24110000  0.09190000  0.65400000  1.0 0.5563721507
C  C18  1  0.91320000  0.25520000  0.51440000  1.0 0.5256709306
C  C19  1  0.88420000  0.17400000  0.37940000  1.0 -0.1423730464
C  C20  1  0.60020000  0.84580000  0.98200000  1.0 -0.1504614341
C  C21  1  0.45880000  0.98400000  0.84300000  1.0 -0.1423730464
C  C22  1  0.72520000  0.61560000  0.12730000  1.0 0.5193618982
C  C23  1  0.90470000  0.22470000  0.39940000  1.0 0.0454325302
C  C24  1  0.89870000  0.22330000  0.17840000  1.0 0.0780065779
C  C25  1  0.60950000  0.76670000  0.00700000  1.0 0.0974143668
C  C26  1  0.90330000  0.25310000  0.03490000  1.0 0.512007445
C  C27  1  0.87850000  0.17510000  0.23700000  1.0 -0.1504614341
C  C28  1  0.38870000  0.98270000  0.79130000  1.0 0.0974143668
C  C29  1  0.59050000  0.51910000  0.52200000  1.0 -0.0073379247
C  C30  1  0.54590000  0.53790000  0.35000000  1.0 -0.1291337163
C  C31  1  0.61300000  0.55340000  0.38760000  1.0 0.0099906731
C  C32  1  0.46300000  0.67100000  0.30800000  1.0 -0.2039657087
C  C33  1  0.90810000  0.75890000  0.15400000  1.0 0.5563721507
C  C34  1  0.74480000  0.08680000  0.01440000  1.0 0.5256709306
C  C35  1  0.82600000  0.11580000  0.87940000  1.0 -0.1504614341
C  C36  1  0.15420000  0.39980000  0.48200000  1.0 -0.1504614341
C  C37  1  0.01600000  0.54120000  0.34300000  1.0 -0.1423730464
C  C38  1  0.38440000  0.27480000  0.62730000  1.0 0.5193618982
C  C39  1  0.77530000  0.09530000  0.89940000  1.0 0.0454325302
C  C40  1  0.77670000  0.10130000  0.67840000  1.0 0.0780065779
C  C41  1  0.23330000  0.39050000  0.50700000  1.0 0.0974143668
C  C42  1  0.74690000  0.09670000  0.53490000  1.0 0.512007445
C  C43  1  0.82490000  0.12150000  0.73700000  1.0 -0.1504614341
C  C44  1  0.01730000  0.61130000  0.29130000  1.0 0.0974143668
C  C45  1  0.48090000  0.40950000  0.02200000  1.0 -0.0073379247
C  C46  1  0.46210000  0.45410000  0.85000000  1.0 -0.1291337163
C  C47  1  0.44660000  0.38700000  0.88760000  1.0 0.0099906731
C  C48  1  0.32900000  0.53700000  0.80800000  1.0 -0.2039657087
C  C49  1  0.75890000  0.90810000  0.34600000  1.0 0.5563721507
C  C50  1  0.08680000  0.74480000  0.48560000  1.0 0.5256709306
C  C51  1  0.11580000  0.82600000  0.62060000  1.0 -0.1504614341
C  C52  1  0.39980000  0.15420000  0.01800000  1.0 -0.1504614341
C  C53  1  0.54120000  0.01600000  0.15700000  1.0 -0.1423730464
C  C54  1  0.27480000  0.38440000  0.87270000  1.0 0.5193618982
C  C55  1  0.09530000  0.77530000  0.60060000  1.0 0.0454325302
C  C56  1  0.10130000  0.77670000  0.82160000  1.0 0.0780065779
C  C57  1  0.39050000  0.23330000  0.99300000  1.0 0.0974143668
C  C58  1  0.09670000  0.74690000  0.96510000  1.0 0.512007445
C  C59  1  0.12150000  0.82490000  0.76300000  1.0 -0.1504614341
C  C60  1  0.61130000  0.01730000  0.20870000  1.0 0.0974143668
C  C61  1  0.40950000  0.48090000  0.47800000  1.0 -0.0073379247
C  C62  1  0.45410000  0.46210000  0.65000000  1.0 -0.1291337163
C  C63  1  0.38700000  0.44660000  0.61240000  1.0 0.0099906731
C  C64  1  0.53700000  0.32900000  0.69200000  1.0 -0.2039657087
O  O1  1  0.21353000  0.15913000  0.93350000  1.0 -0.5327780397
O  O2  1  0.25594000  0.91454000  0.22420000  1.0 -0.1853782387
O  O3  1  0.84893000  0.48053000  0.60980000  1.0 -0.1668870897
O  O4  1  0.53779000  0.84499000  0.25110000  1.0 -0.5411522315
O  O5  1  0.06159000  0.20459000  0.87550000  1.0 -0.5472545326
O  O6  1  0.22615000  0.90415000  0.87160000  1.0 -0.5411522315
O  O7  1  0.21722000  0.89642000  0.55260000  1.0 -0.5899352879
O  O8  1  0.31327000  0.92247000  0.00540000  1.0 -0.5627920778
O  O9  1  0.56950000  0.70830000  0.38920000  1.0 -0.5165622981
O  O10  1  0.31220000  0.90880000  0.50350000  1.0 -0.4626322017
O  O11  1  0.47883000  0.69803000  0.92160000  1.0 -0.3833597005
O  O12  1  0.15913000  0.21353000  0.56650000  1.0 -0.5327780397
O  O13  1  0.91454000  0.25594000  0.27580000  1.0 -0.1847868712
O  O14  1  0.48053000  0.84893000  0.89020000  1.0 -0.1668870897
O  O15  1  0.84499000  0.53779000  0.24890000  1.0 -0.5411522315
O  O16  1  0.20459000  0.06159000  0.62450000  1.0 -0.5472545326
O  O17  1  0.90415000  0.22615000  0.62840000  1.0 -0.5411522315
O  O18  1  0.89642000  0.21722000  0.94740000  1.0 -0.5899352879
O  O19  1  0.92247000  0.31327000  0.49460000  1.0 -0.5627920778
O  O20  1  0.70830000  0.56950000  0.11080000  1.0 -0.5165622981
O  O21  1  0.90880000  0.31220000  0.99650000  1.0 -0.4626322017
O  O22  1  0.69803000  0.47883000  0.57840000  1.0 -0.3833597005
O  O23  1  0.78647000  0.84087000  0.06650000  1.0 -0.5327780397
O  O24  1  0.74406000  0.08546000  0.77580000  1.0 -0.1847868712
O  O25  1  0.15107000  0.51947000  0.39020000  1.0 -0.1668870897
O  O26  1  0.46221000  0.15501000  0.74890000  1.0 -0.5411522315
O  O27  1  0.93841000  0.79541000  0.12450000  1.0 -0.5472545326
O  O28  1  0.77385000  0.09585000  0.12840000  1.0 -0.5411522315
O  O29  1  0.78278000  0.10358000  0.44740000  1.0 -0.5899352879
O  O30  1  0.68673000  0.07753000  0.99460000  1.0 -0.5627920778
O  O31  1  0.43050000  0.29170000  0.61080000  1.0 -0.5165622981
O  O32  1  0.68780000  0.09120000  0.49650000  1.0 -0.4626322017
O  O33  1  0.52117000  0.30197000  0.07840000  1.0 -0.3833597005
O  O34  1  0.84087000  0.78647000  0.43350000  1.0 -0.5327780397
O  O35  1  0.08546000  0.74406000  0.72420000  1.0 -0.1853782387
O  O36  1  0.51947000  0.15107000  0.10980000  1.0 -0.1668870897
O  O37  1  0.15501000  0.46221000  0.75110000  1.0 -0.5411522315
O  O38  1  0.79541000  0.93841000  0.37550000  1.0 -0.5472545326
O  O39  1  0.09585000  0.77385000  0.37160000  1.0 -0.5411522315
O  O40  1  0.10358000  0.78278000  0.05260000  1.0 -0.5899352879
O  O41  1  0.07753000  0.68673000  0.50540000  1.0 -0.5627920778
O  O42  1  0.29170000  0.43050000  0.88920000  1.0 -0.5165622981
O  O43  1  0.09120000  0.68780000  0.00350000  1.0 -0.4626322017
O  O44  1  0.30197000  0.52117000  0.42160000  1.0 -0.3833597005
