# DDEC6 charges by PACMAN v1.1 (https://github.com/mtap-research/PACMAN-charge/)
data_YEMGED_FSR_pacman
_symmetry_space_group_name_H-M   'P 1'
_cell_length_a   17.42590000
_cell_length_b   17.42590000
_cell_length_c   17.42590000
_cell_angle_alpha   60.00000000
_cell_angle_beta   60.00000000
_cell_angle_gamma   60.00000000
_symmetry_Int_Tables_number   1
_chemical_formula_structural   Cu3H6C6N9O
_chemical_formula_sum   'Cu24 H48 C48 N72 O8'
_cell_volume   3741.71456592
_cell_formula_units_Z   8
loop_
 _symmetry_equiv_pos_site_id
 _symmetry_equiv_pos_as_xyz
  1  'x, y, z'
loop_
 _atom_site_type_symbol
 _atom_site_label
 _atom_site_symmetry_multiplicity
 _atom_site_fract_x
 _atom_site_fract_y
 _atom_site_fract_z
 _atom_site_occupancy
 _atom_site_charge
Cu  Cu1  1  0.62500000  0.23726000  0.12500000  1.0 0.5909982921
Cu  Cu2  1  0.12500000  0.62500000  0.23726000  1.0 0.5909982921
Cu  Cu3  1  0.23726000  0.12500000  0.62500000  1.0 0.5909982921
Cu  Cu4  1  0.62500000  0.01274000  0.23726000  1.0 0.5909982921
Cu  Cu5  1  0.12500000  0.23726000  0.01274000  1.0 0.5909982921
Cu  Cu6  1  0.23726000  0.01274000  0.12500000  1.0 0.5909982921
Cu  Cu7  1  0.01274000  0.23726000  0.62500000  1.0 0.5909982921
Cu  Cu8  1  0.01274000  0.12500000  0.23726000  1.0 0.5909982921
Cu  Cu9  1  0.23726000  0.62500000  0.01274000  1.0 0.5909982921
Cu  Cu10  1  0.62500000  0.12500000  0.01274000  1.0 0.5909982921
Cu  Cu11  1  0.01274000  0.62500000  0.12500000  1.0 0.5909982921
Cu  Cu12  1  0.12500000  0.01274000  0.62500000  1.0 0.5909982921
Cu  Cu13  1  0.12500000  0.51274000  0.62500000  1.0 0.5909982921
Cu  Cu14  1  0.62500000  0.12500000  0.51274000  1.0 0.5909982921
Cu  Cu15  1  0.51274000  0.62500000  0.12500000  1.0 0.5909982921
Cu  Cu16  1  0.12500000  0.73726000  0.51274000  1.0 0.5909982921
Cu  Cu17  1  0.62500000  0.51274000  0.73726000  1.0 0.5909982921
Cu  Cu18  1  0.51274000  0.73726000  0.62500000  1.0 0.5909982921
Cu  Cu19  1  0.73726000  0.51274000  0.12500000  1.0 0.5909982921
Cu  Cu20  1  0.73726000  0.62500000  0.51274000  1.0 0.5909982921
Cu  Cu21  1  0.51274000  0.12500000  0.73726000  1.0 0.5909982921
Cu  Cu22  1  0.12500000  0.62500000  0.73726000  1.0 0.5909982921
Cu  Cu23  1  0.73726000  0.12500000  0.62500000  1.0 0.5909982921
Cu  Cu24  1  0.62500000  0.73726000  0.12500000  1.0 0.5909982921
H  H1  1  0.64220000  0.42440000  0.94180000  1.0 0.089491293
H  H2  1  0.94180000  0.64220000  0.42440000  1.0 0.089491293
H  H3  1  0.42440000  0.94180000  0.64220000  1.0 0.089491293
H  H4  1  0.60780000  0.82560000  0.25840000  1.0 0.089491293
H  H5  1  0.30820000  0.25840000  0.82560000  1.0 0.089491293
H  H6  1  0.25840000  0.30820000  0.60780000  1.0 0.089491293
H  H7  1  0.30820000  0.60780000  0.25840000  1.0 0.089491293
H  H8  1  0.25840000  0.82560000  0.30820000  1.0 0.089491293
H  H9  1  0.82560000  0.25840000  0.60780000  1.0 0.089491293
H  H10  1  0.82560000  0.30820000  0.25840000  1.0 0.089491293
H  H11  1  0.60780000  0.25840000  0.30820000  1.0 0.089491293
H  H12  1  0.25840000  0.60780000  0.82560000  1.0 0.089491293
H  H13  1  0.42440000  0.64220000  0.99160000  1.0 0.089491293
H  H14  1  0.64220000  0.94180000  0.99160000  1.0 0.089491293
H  H15  1  0.94180000  0.42440000  0.99160000  1.0 0.089491293
H  H16  1  0.99160000  0.94180000  0.42440000  1.0 0.089491293
H  H17  1  0.99160000  0.42440000  0.64220000  1.0 0.089491293
H  H18  1  0.99160000  0.64220000  0.94180000  1.0 0.089491293
H  H19  1  0.94180000  0.99160000  0.64220000  1.0 0.089491293
H  H20  1  0.42440000  0.99160000  0.94180000  1.0 0.089491293
H  H21  1  0.64220000  0.99160000  0.42440000  1.0 0.089491293
H  H22  1  0.82560000  0.60780000  0.30820000  1.0 0.089491293
H  H23  1  0.60780000  0.30820000  0.82560000  1.0 0.089491293
H  H24  1  0.30820000  0.82560000  0.60780000  1.0 0.089491293
H  H25  1  0.10780000  0.32560000  0.80820000  1.0 0.089491293
H  H26  1  0.80820000  0.10780000  0.32560000  1.0 0.089491293
H  H27  1  0.32560000  0.80820000  0.10780000  1.0 0.089491293
H  H28  1  0.14220000  0.92440000  0.49160000  1.0 0.089491293
H  H29  1  0.44180000  0.49160000  0.92440000  1.0 0.089491293
H  H30  1  0.49160000  0.44180000  0.14220000  1.0 0.089491293
H  H31  1  0.44180000  0.14220000  0.49160000  1.0 0.089491293
H  H32  1  0.49160000  0.92440000  0.44180000  1.0 0.089491293
H  H33  1  0.92440000  0.49160000  0.14220000  1.0 0.089491293
H  H34  1  0.92440000  0.44180000  0.49160000  1.0 0.089491293
H  H35  1  0.14220000  0.49160000  0.44180000  1.0 0.089491293
H  H36  1  0.49160000  0.14220000  0.92440000  1.0 0.089491293
H  H37  1  0.32560000  0.10780000  0.75840000  1.0 0.089491293
H  H38  1  0.10780000  0.80820000  0.75840000  1.0 0.089491293
H  H39  1  0.80820000  0.32560000  0.75840000  1.0 0.089491293
H  H40  1  0.75840000  0.80820000  0.32560000  1.0 0.089491293
H  H41  1  0.75840000  0.32560000  0.10780000  1.0 0.089491293
H  H42  1  0.75840000  0.10780000  0.80820000  1.0 0.089491293
H  H43  1  0.80820000  0.75840000  0.10780000  1.0 0.089491293
H  H44  1  0.32560000  0.75840000  0.80820000  1.0 0.089491293
H  H45  1  0.10780000  0.75840000  0.32560000  1.0 0.089491293
H  H46  1  0.92440000  0.14220000  0.44180000  1.0 0.089491293
H  H47  1  0.14220000  0.44180000  0.92440000  1.0 0.089491293
H  H48  1  0.44180000  0.92440000  0.14220000  1.0 0.089491293
C  C1  1  0.63414000  0.38194000  0.93142000  1.0 0.1248449461
C  C2  1  0.93142000  0.63414000  0.38194000  1.0 0.1251817422
C  C3  1  0.38194000  0.93142000  0.63414000  1.0 0.1251817422
C  C4  1  0.61586000  0.86806000  0.19750000  1.0 0.1251817422
C  C5  1  0.31858000  0.19750000  0.86806000  1.0 0.1251817422
C  C6  1  0.19750000  0.31858000  0.61586000  1.0 0.1251817422
C  C7  1  0.31858000  0.61586000  0.19750000  1.0 0.1251817422
C  C8  1  0.19750000  0.86806000  0.31858000  1.0 0.1251817422
C  C9  1  0.86806000  0.19750000  0.61586000  1.0 0.1248449461
C  C10  1  0.86806000  0.31858000  0.19750000  1.0 0.1251817422
C  C11  1  0.61586000  0.19750000  0.31858000  1.0 0.1248449461
C  C12  1  0.19750000  0.61586000  0.86806000  1.0 0.1251817422
C  C13  1  0.38194000  0.63414000  0.05250000  1.0 0.1251817422
C  C14  1  0.63414000  0.93142000  0.05250000  1.0 0.1251817422
C  C15  1  0.93142000  0.38194000  0.05250000  1.0 0.1251817422
C  C16  1  0.05250000  0.93142000  0.38194000  1.0 0.1251817422
C  C17  1  0.05250000  0.38194000  0.63414000  1.0 0.1251817422
C  C18  1  0.05250000  0.63414000  0.93142000  1.0 0.1251817422
C  C19  1  0.93142000  0.05250000  0.63414000  1.0 0.1248449461
C  C20  1  0.38194000  0.05250000  0.93142000  1.0 0.1248449461
C  C21  1  0.63414000  0.05250000  0.38194000  1.0 0.1251817422
C  C22  1  0.86806000  0.61586000  0.31858000  1.0 0.1251817422
C  C23  1  0.61586000  0.31858000  0.86806000  1.0 0.1251817422
C  C24  1  0.31858000  0.86806000  0.61586000  1.0 0.1251817422
C  C25  1  0.11586000  0.36806000  0.81858000  1.0 0.1248449461
C  C26  1  0.81858000  0.11586000  0.36806000  1.0 0.1248449461
C  C27  1  0.36806000  0.81858000  0.11586000  1.0 0.1251817422
C  C28  1  0.13414000  0.88194000  0.55250000  1.0 0.1251817422
C  C29  1  0.43142000  0.55250000  0.88194000  1.0 0.1251817422
C  C30  1  0.55250000  0.43142000  0.13414000  1.0 0.1251817422
C  C31  1  0.43142000  0.13414000  0.55250000  1.0 0.1248449461
C  C32  1  0.55250000  0.88194000  0.43142000  1.0 0.1251817422
C  C33  1  0.88194000  0.55250000  0.13414000  1.0 0.1251817422
C  C34  1  0.88194000  0.43142000  0.55250000  1.0 0.1248449461
C  C35  1  0.13414000  0.55250000  0.43142000  1.0 0.1251817422
C  C36  1  0.55250000  0.13414000  0.88194000  1.0 0.1248449461
C  C37  1  0.36806000  0.11586000  0.69750000  1.0 0.1251817422
C  C38  1  0.11586000  0.81858000  0.69750000  1.0 0.1251817422
C  C39  1  0.81858000  0.36806000  0.69750000  1.0 0.1251817422
C  C40  1  0.69750000  0.81858000  0.36806000  1.0 0.1251817422
C  C41  1  0.69750000  0.36806000  0.11586000  1.0 0.1251817422
C  C42  1  0.69750000  0.11586000  0.81858000  1.0 0.1248449461
C  C43  1  0.81858000  0.69750000  0.11586000  1.0 0.1251817422
C  C44  1  0.36806000  0.69750000  0.81858000  1.0 0.1251817422
C  C45  1  0.11586000  0.69750000  0.36806000  1.0 0.1251817422
C  C46  1  0.88194000  0.13414000  0.43142000  1.0 0.1248449461
C  C47  1  0.13414000  0.43142000  0.88194000  1.0 0.1251817422
C  C48  1  0.43142000  0.88194000  0.13414000  1.0 0.1251817422
N  N1  1  0.63028000  0.29872000  0.99266000  1.0 -0.1970980973
N  N2  1  0.99266000  0.63028000  0.29872000  1.0 -0.1970980973
N  N3  1  0.29872000  0.99266000  0.63028000  1.0 -0.1970980973
N  N4  1  0.61972000  0.95128000  0.17166000  1.0 -0.1970980973
N  N5  1  0.25734000  0.17166000  0.95128000  1.0 -0.1970980973
N  N6  1  0.17166000  0.25734000  0.61972000  1.0 -0.1970980973
N  N7  1  0.25734000  0.61972000  0.17166000  1.0 -0.1970980973
N  N8  1  0.17166000  0.95128000  0.25734000  1.0 -0.1970980973
N  N9  1  0.95128000  0.17166000  0.61972000  1.0 -0.1970980973
N  N10  1  0.95128000  0.25734000  0.17166000  1.0 -0.1970980973
N  N11  1  0.61972000  0.17166000  0.25734000  1.0 -0.1970980973
N  N12  1  0.17166000  0.61972000  0.95128000  1.0 -0.1970980973
N  N13  1  0.29872000  0.63028000  0.07834000  1.0 -0.1970980973
N  N14  1  0.63028000  0.99266000  0.07834000  1.0 -0.1970980973
N  N15  1  0.99266000  0.29872000  0.07834000  1.0 -0.1970980973
N  N16  1  0.07834000  0.99266000  0.29872000  1.0 -0.1970980973
N  N17  1  0.07834000  0.29872000  0.63028000  1.0 -0.1970980973
N  N18  1  0.07834000  0.63028000  0.99266000  1.0 -0.1970980973
N  N19  1  0.99266000  0.07834000  0.63028000  1.0 -0.1970980973
N  N20  1  0.29872000  0.07834000  0.99266000  1.0 -0.1970980973
N  N21  1  0.63028000  0.07834000  0.29872000  1.0 -0.1970980973
N  N22  1  0.95128000  0.61972000  0.25734000  1.0 -0.1970980973
N  N23  1  0.61972000  0.25734000  0.95128000  1.0 -0.1970980973
N  N24  1  0.25734000  0.95128000  0.61972000  1.0 -0.1970980973
N  N25  1  0.11972000  0.45128000  0.75734000  1.0 -0.1970980973
N  N26  1  0.75734000  0.11972000  0.45128000  1.0 -0.1970980973
N  N27  1  0.45128000  0.75734000  0.11972000  1.0 -0.1970980973
N  N28  1  0.13028000  0.79872000  0.57834000  1.0 -0.1970980973
N  N29  1  0.49266000  0.57834000  0.79872000  1.0 -0.1970980973
N  N30  1  0.57834000  0.49266000  0.13028000  1.0 -0.1970980973
N  N31  1  0.49266000  0.13028000  0.57834000  1.0 -0.1970980973
N  N32  1  0.57834000  0.79872000  0.49266000  1.0 -0.1970980973
N  N33  1  0.79872000  0.57834000  0.13028000  1.0 -0.1970980973
N  N34  1  0.79872000  0.49266000  0.57834000  1.0 -0.1970980973
N  N35  1  0.13028000  0.57834000  0.49266000  1.0 -0.1970980973
N  N36  1  0.57834000  0.13028000  0.79872000  1.0 -0.1970980973
N  N37  1  0.45128000  0.11972000  0.67166000  1.0 -0.1970980973
N  N38  1  0.11972000  0.75734000  0.67166000  1.0 -0.1970980973
N  N39  1  0.75734000  0.45128000  0.67166000  1.0 -0.1970980973
N  N40  1  0.67166000  0.75734000  0.45128000  1.0 -0.1970980973
N  N41  1  0.67166000  0.45128000  0.11972000  1.0 -0.1970980973
N  N42  1  0.67166000  0.11972000  0.75734000  1.0 -0.1970980973
N  N43  1  0.75734000  0.67166000  0.11972000  1.0 -0.1970980973
N  N44  1  0.45128000  0.67166000  0.75734000  1.0 -0.1970980973
N  N45  1  0.11972000  0.67166000  0.45128000  1.0 -0.1970980973
N  N46  1  0.79872000  0.13028000  0.49266000  1.0 -0.1970980973
N  N47  1  0.13028000  0.49266000  0.79872000  1.0 -0.1970980973
N  N48  1  0.49266000  0.79872000  0.13028000  1.0 -0.1970980973
N  N49  1  0.62500000  0.39812000  0.85188000  1.0 -0.3633224131
N  N50  1  0.85188000  0.62500000  0.39812000  1.0 -0.3633224131
N  N51  1  0.39812000  0.85188000  0.62500000  1.0 -0.3633224131
N  N52  1  0.62500000  0.85188000  0.12500000  1.0 -0.3633224131
N  N53  1  0.39812000  0.12500000  0.85188000  1.0 -0.3633224131
N  N54  1  0.12500000  0.39812000  0.62500000  1.0 -0.3633224131
N  N55  1  0.39812000  0.62500000  0.12500000  1.0 -0.3633224131
N  N56  1  0.12500000  0.85188000  0.39812000  1.0 -0.3633224131
N  N57  1  0.85188000  0.12500000  0.62500000  1.0 -0.3633224131
N  N58  1  0.85188000  0.39812000  0.12500000  1.0 -0.3633224131
N  N59  1  0.62500000  0.12500000  0.39812000  1.0 -0.3633224131
N  N60  1  0.12500000  0.62500000  0.85188000  1.0 -0.3633224131
N  N61  1  0.12500000  0.35188000  0.89812000  1.0 -0.3633224131
N  N62  1  0.89812000  0.12500000  0.35188000  1.0 -0.3633224131
N  N63  1  0.35188000  0.89812000  0.12500000  1.0 -0.3633224131
N  N64  1  0.12500000  0.89812000  0.62500000  1.0 -0.3633224131
N  N65  1  0.35188000  0.62500000  0.89812000  1.0 -0.3633224131
N  N66  1  0.62500000  0.35188000  0.12500000  1.0 -0.3633224131
N  N67  1  0.35188000  0.12500000  0.62500000  1.0 -0.3633224131
N  N68  1  0.62500000  0.89812000  0.35188000  1.0 -0.3633224131
N  N69  1  0.89812000  0.62500000  0.12500000  1.0 -0.3633224131
N  N70  1  0.89812000  0.35188000  0.62500000  1.0 -0.3633224131
N  N71  1  0.12500000  0.62500000  0.35188000  1.0 -0.3633224131
N  N72  1  0.62500000  0.12500000  0.89812000  1.0 -0.3633224131
O  O1  1  0.62500000  0.12500000  0.12500000  1.0 -0.7879720701
O  O2  1  0.12500000  0.62500000  0.12500000  1.0 -0.7879720701
O  O3  1  0.12500000  0.12500000  0.62500000  1.0 -0.7879720701
O  O4  1  0.12500000  0.12500000  0.12500000  1.0 -0.7879720701
O  O5  1  0.12500000  0.62500000  0.62500000  1.0 -0.7879720701
O  O6  1  0.62500000  0.12500000  0.62500000  1.0 -0.7879720701
O  O7  1  0.62500000  0.62500000  0.12500000  1.0 -0.7879720701
O  O8  1  0.62500000  0.62500000  0.62500000  1.0 -0.7879720701
