# DDEC6 charges by PACMAN v1.1 (https://github.com/mtap-research/PACMAN-charge/)
data_YEMLUY_ASR_pacman
_symmetry_space_group_name_H-M   'P 1'
_cell_length_a   19.14300000
_cell_length_b   19.14300000
_cell_length_c   9.27000000
_cell_angle_alpha   90.00000000
_cell_angle_beta   90.00000000
_cell_angle_gamma   120.00000000
_symmetry_Int_Tables_number   1
_chemical_formula_structural   Co4P3H33C18(NO7)3
_chemical_formula_sum   'Co16 P12 H132 C72 N12 O84'
_cell_volume   2941.91665226
_cell_formula_units_Z   4
loop_
 _symmetry_equiv_pos_site_id
 _symmetry_equiv_pos_as_xyz
  1  'x, y, z'
loop_
 _atom_site_type_symbol
 _atom_site_label
 _atom_site_symmetry_multiplicity
 _atom_site_fract_x
 _atom_site_fract_y
 _atom_site_fract_z
 _atom_site_occupancy
 _atom_site_charge
Co  Co1  1  0.66666667  0.33333333  0.23408000  1.0 1.1913124144
Co  Co2  1  0.33333333  0.66666667  0.26592000  1.0 1.1913124144
Co  Co3  1  0.33333333  0.66666667  0.76592000  1.0 1.1913124144
Co  Co4  1  0.66666667  0.33333333  0.73408000  1.0 1.1913124144
Co  Co5  1  0.49252000  0.18915000  0.18838000  1.0 0.8285342772
Co  Co6  1  0.81085000  0.30337000  0.18838000  1.0 0.8285342772
Co  Co7  1  0.69663000  0.50748000  0.18838000  1.0 0.8285342772
Co  Co8  1  0.18915000  0.49252000  0.31162000  1.0 0.8285342772
Co  Co9  1  0.30337000  0.81085000  0.31162000  1.0 0.8285342772
Co  Co10  1  0.50748000  0.69663000  0.31162000  1.0 0.8285342772
Co  Co11  1  0.50748000  0.81085000  0.81162000  1.0 0.8285342772
Co  Co12  1  0.18915000  0.69663000  0.81162000  1.0 0.8285342772
Co  Co13  1  0.30337000  0.49252000  0.81162000  1.0 0.8285342772
Co  Co14  1  0.81085000  0.50748000  0.68838000  1.0 0.8285342772
Co  Co15  1  0.69663000  0.18915000  0.68838000  1.0 0.8285342772
Co  Co16  1  0.49252000  0.30337000  0.68838000  1.0 0.8285342772
P  P1  1  0.63284000  0.19487000  0.99476000  1.0 1.3026986737
P  P2  1  0.80513000  0.43797000  0.99476000  1.0 1.3026986737
P  P3  1  0.56203000  0.36716000  0.99476000  1.0 1.3026986737
P  P4  1  0.19487000  0.63284000  0.50524000  1.0 1.3026986737
P  P5  1  0.43797000  0.80513000  0.50524000  1.0 1.3026986737
P  P6  1  0.36716000  0.56203000  0.50524000  1.0 1.3026986737
P  P7  1  0.36716000  0.80513000  0.00524000  1.0 1.3026986737
P  P8  1  0.19487000  0.56203000  0.00524000  1.0 1.3026986737
P  P9  1  0.43797000  0.63284000  0.00524000  1.0 1.3026986737
P  P10  1  0.80513000  0.36716000  0.49476000  1.0 1.3026986737
P  P11  1  0.56203000  0.19487000  0.49476000  1.0 1.3026986737
P  P12  1  0.63284000  0.43797000  0.49476000  1.0 1.3026986737
H  H1  1  0.71550000  0.13710000  0.99880000  1.0 0.1084109873
H  H2  1  0.86290000  0.57840000  0.99880000  1.0 0.1084109873
H  H3  1  0.42160000  0.28450000  0.99880000  1.0 0.1084109873
H  H4  1  0.13710000  0.71550000  0.50120000  1.0 0.1084109873
H  H5  1  0.57840000  0.86290000  0.50120000  1.0 0.1084109873
H  H6  1  0.28450000  0.42160000  0.50120000  1.0 0.1084109873
H  H7  1  0.28450000  0.86290000  0.00120000  1.0 0.1084109873
H  H8  1  0.13710000  0.42160000  0.00120000  1.0 0.1084109873
H  H9  1  0.57840000  0.71550000  0.00120000  1.0 0.1084109873
H  H10  1  0.86290000  0.28450000  0.49880000  1.0 0.1084109873
H  H11  1  0.42160000  0.13710000  0.49880000  1.0 0.1084109873
H  H12  1  0.71550000  0.57840000  0.49880000  1.0 0.1084109873
H  H13  1  0.62630000  0.07250000  0.05010000  1.0 0.1446358804
H  H14  1  0.92750000  0.55380000  0.05010000  1.0 0.1446358804
H  H15  1  0.44620000  0.37370000  0.05010000  1.0 0.1446358804
H  H16  1  0.07250000  0.62630000  0.44990000  1.0 0.1446358804
H  H17  1  0.55380000  0.92750000  0.44990000  1.0 0.1446358804
H  H18  1  0.37370000  0.44620000  0.44990000  1.0 0.1446358804
H  H19  1  0.37370000  0.92750000  0.94990000  1.0 0.1446358804
H  H20  1  0.07250000  0.44620000  0.94990000  1.0 0.1446358804
H  H21  1  0.55380000  0.62630000  0.94990000  1.0 0.1446358804
H  H22  1  0.92750000  0.37370000  0.55010000  1.0 0.1446358804
H  H23  1  0.44620000  0.07250000  0.55010000  1.0 0.1446358804
H  H24  1  0.62630000  0.55380000  0.55010000  1.0 0.1446358804
H  H25  1  0.64690000  0.98140000  0.89900000  1.0 0.081228432
H  H26  1  0.01860000  0.66550000  0.89900000  1.0 0.081228432
H  H27  1  0.33450000  0.35310000  0.89900000  1.0 0.081228432
H  H28  1  0.98140000  0.64690000  0.60100000  1.0 0.081228432
H  H29  1  0.66550000  0.01860000  0.60100000  1.0 0.081228432
H  H30  1  0.35310000  0.33450000  0.60100000  1.0 0.081228432
H  H31  1  0.35310000  0.01860000  0.10100000  1.0 0.081228432
H  H32  1  0.98140000  0.33450000  0.10100000  1.0 0.081228432
H  H33  1  0.66550000  0.64690000  0.10100000  1.0 0.081228432
H  H34  1  0.01860000  0.35310000  0.39900000  1.0 0.081228432
H  H35  1  0.33450000  0.98140000  0.39900000  1.0 0.081228432
H  H36  1  0.64690000  0.66550000  0.39900000  1.0 0.081228432
H  H37  1  0.52560000  0.05910000  0.82070000  1.0 0.1184255227
H  H38  1  0.94090000  0.46650000  0.82070000  1.0 0.1184255227
H  H39  1  0.53350000  0.47440000  0.82070000  1.0 0.1184255227
H  H40  1  0.05910000  0.52560000  0.67930000  1.0 0.1184255227
H  H41  1  0.46650000  0.94090000  0.67930000  1.0 0.1184255227
H  H42  1  0.47440000  0.53350000  0.67930000  1.0 0.1184255227
H  H43  1  0.47440000  0.94090000  0.17930000  1.0 0.1184255227
H  H44  1  0.05910000  0.53350000  0.17930000  1.0 0.1184255227
H  H45  1  0.46650000  0.52560000  0.17930000  1.0 0.1184255227
H  H46  1  0.94090000  0.47440000  0.32070000  1.0 0.1184255227
H  H47  1  0.53350000  0.05910000  0.32070000  1.0 0.1184255227
H  H48  1  0.52560000  0.46650000  0.32070000  1.0 0.1184255227
H  H49  1  0.53090000  0.98850000  0.90310000  1.0 0.1084109873
H  H50  1  0.01150000  0.54240000  0.90310000  1.0 0.1084109873
H  H51  1  0.45760000  0.46910000  0.90310000  1.0 0.1084109873
H  H52  1  0.98850000  0.53090000  0.59690000  1.0 0.1084109873
H  H53  1  0.54240000  0.01150000  0.59690000  1.0 0.1084109873
H  H54  1  0.46910000  0.45760000  0.59690000  1.0 0.1084109873
H  H55  1  0.46910000  0.01150000  0.09690000  1.0 0.1084109873
H  H56  1  0.98850000  0.45760000  0.09690000  1.0 0.1084109873
H  H57  1  0.54240000  0.53090000  0.09690000  1.0 0.1084109873
H  H58  1  0.01150000  0.46910000  0.40310000  1.0 0.1084109873
H  H59  1  0.45760000  0.98850000  0.40310000  1.0 0.1084109873
H  H60  1  0.53090000  0.54240000  0.40310000  1.0 0.1084109873
H  H61  1  0.77980000  0.08870000  0.93600000  1.0 0.1084109873
H  H62  1  0.91130000  0.69110000  0.93600000  1.0 0.1084109873
H  H63  1  0.30890000  0.22020000  0.93600000  1.0 0.1084109873
H  H64  1  0.08870000  0.77980000  0.56400000  1.0 0.1084109873
H  H65  1  0.69110000  0.91130000  0.56400000  1.0 0.1084109873
H  H66  1  0.22020000  0.30890000  0.56400000  1.0 0.1084109873
H  H67  1  0.22020000  0.91130000  0.06400000  1.0 0.1084109873
H  H68  1  0.08870000  0.30890000  0.06400000  1.0 0.1084109873
H  H69  1  0.69110000  0.77980000  0.06400000  1.0 0.1084109873
H  H70  1  0.91130000  0.22020000  0.43600000  1.0 0.1084109873
H  H71  1  0.30890000  0.08870000  0.43600000  1.0 0.1084109873
H  H72  1  0.77980000  0.69110000  0.43600000  1.0 0.1084109873
H  H73  1  0.79320000  0.09650000  0.76500000  1.0 0.0918206132
H  H74  1  0.90350000  0.69670000  0.76500000  1.0 0.0918206132
H  H75  1  0.30330000  0.20680000  0.76500000  1.0 0.0918206132
H  H76  1  0.09650000  0.79320000  0.73500000  1.0 0.0918206132
H  H77  1  0.69670000  0.90350000  0.73500000  1.0 0.0918206132
H  H78  1  0.20680000  0.30330000  0.73500000  1.0 0.0918206132
H  H79  1  0.20680000  0.90350000  0.23500000  1.0 0.0918206132
H  H80  1  0.09650000  0.30330000  0.23500000  1.0 0.0918206132
H  H81  1  0.69670000  0.79320000  0.23500000  1.0 0.0918206132
H  H82  1  0.90350000  0.20680000  0.26500000  1.0 0.0918206132
H  H83  1  0.30330000  0.09650000  0.26500000  1.0 0.0918206132
H  H84  1  0.79320000  0.69670000  0.26500000  1.0 0.0918206132
H  H85  1  0.77750000  0.01620000  0.84640000  1.0 0.128782324
H  H86  1  0.98380000  0.76130000  0.84640000  1.0 0.128782324
H  H87  1  0.23870000  0.22250000  0.84640000  1.0 0.128782324
H  H88  1  0.01620000  0.77750000  0.65360000  1.0 0.128782324
H  H89  1  0.76130000  0.98380000  0.65360000  1.0 0.128782324
H  H90  1  0.22250000  0.23870000  0.65360000  1.0 0.128782324
H  H91  1  0.22250000  0.98380000  0.15360000  1.0 0.128782324
H  H92  1  0.01620000  0.23870000  0.15360000  1.0 0.128782324
H  H93  1  0.76130000  0.77750000  0.15360000  1.0 0.128782324
H  H94  1  0.98380000  0.22250000  0.34640000  1.0 0.128782324
H  H95  1  0.23870000  0.01620000  0.34640000  1.0 0.128782324
H  H96  1  0.77750000  0.76130000  0.34640000  1.0 0.128782324
H  H97  1  0.24170000  0.14010000  0.11150000  1.0 0.1586805402
H  H98  1  0.85990000  0.10160000  0.11150000  1.0 0.1586805402
H  H99  1  0.89840000  0.75830000  0.11150000  1.0 0.1586805402
H  H100  1  0.14010000  0.24170000  0.38850000  1.0 0.1586805402
H  H101  1  0.10160000  0.85990000  0.38850000  1.0 0.1586805402
H  H102  1  0.75830000  0.89840000  0.38850000  1.0 0.1586805402
H  H103  1  0.75830000  0.85990000  0.88850000  1.0 0.1586805402
H  H104  1  0.14010000  0.89840000  0.88850000  1.0 0.1586805402
H  H105  1  0.10160000  0.24170000  0.88850000  1.0 0.1586805402
H  H106  1  0.85990000  0.75830000  0.61150000  1.0 0.1586805402
H  H107  1  0.89840000  0.14010000  0.61150000  1.0 0.1586805402
H  H108  1  0.24170000  0.10160000  0.61150000  1.0 0.1586805402
H  H109  1  0.24730000  0.14720000  0.28360000  1.0 0.1502631872
H  H110  1  0.85280000  0.10010000  0.28360000  1.0 0.1502631872
H  H111  1  0.89990000  0.75270000  0.28360000  1.0 0.1502631872
H  H112  1  0.14720000  0.24730000  0.21640000  1.0 0.1502631872
H  H113  1  0.10010000  0.85280000  0.21640000  1.0 0.1502631872
H  H114  1  0.75270000  0.89990000  0.21640000  1.0 0.1502631872
H  H115  1  0.75270000  0.85280000  0.71640000  1.0 0.1502631872
H  H116  1  0.14720000  0.89990000  0.71640000  1.0 0.1502631872
H  H117  1  0.10010000  0.24730000  0.71640000  1.0 0.1502631872
H  H118  1  0.85280000  0.75270000  0.78360000  1.0 0.1502631872
H  H119  1  0.89990000  0.14720000  0.78360000  1.0 0.1502631872
H  H120  1  0.24730000  0.10010000  0.78360000  1.0 0.1502631872
H  H121  1  0.27930000  0.22670000  0.18690000  1.0 0.1586805402
H  H122  1  0.77330000  0.05260000  0.18690000  1.0 0.1586805402
H  H123  1  0.94740000  0.72070000  0.18690000  1.0 0.1586805402
H  H124  1  0.22670000  0.27930000  0.31310000  1.0 0.1586805402
H  H125  1  0.05260000  0.77330000  0.31310000  1.0 0.1586805402
H  H126  1  0.72070000  0.94740000  0.31310000  1.0 0.1586805402
H  H127  1  0.72070000  0.77330000  0.81310000  1.0 0.1586805402
H  H128  1  0.22670000  0.94740000  0.81310000  1.0 0.1586805402
H  H129  1  0.05260000  0.27930000  0.81310000  1.0 0.1586805402
H  H130  1  0.77330000  0.72070000  0.68690000  1.0 0.1586805402
H  H131  1  0.94740000  0.22670000  0.68690000  1.0 0.1586805402
H  H132  1  0.27930000  0.05260000  0.68690000  1.0 0.1586805402
C  C1  1  0.65750000  0.11480000  0.97760000  1.0 -0.4925319185
C  C2  1  0.88520000  0.54270000  0.97760000  1.0 -0.4925319185
C  C3  1  0.45730000  0.34250000  0.97760000  1.0 -0.4925319185
C  C4  1  0.11480000  0.65750000  0.52240000  1.0 -0.4925319185
C  C5  1  0.54270000  0.88520000  0.52240000  1.0 -0.4925319185
C  C6  1  0.34250000  0.45730000  0.52240000  1.0 -0.4925319185
C  C7  1  0.34250000  0.88520000  0.02240000  1.0 -0.4925319185
C  C8  1  0.11480000  0.45730000  0.02240000  1.0 -0.4925319185
C  C9  1  0.54270000  0.65750000  0.02240000  1.0 -0.4925319185
C  C10  1  0.88520000  0.34250000  0.47760000  1.0 -0.4925319185
C  C11  1  0.45730000  0.11480000  0.47760000  1.0 -0.4925319185
C  C12  1  0.65750000  0.54270000  0.47760000  1.0 -0.4925319185
C  C13  1  0.67380000  0.02290000  0.82180000  1.0 0.0494772671
C  C14  1  0.97710000  0.65090000  0.82180000  1.0 0.0494772671
C  C15  1  0.34910000  0.32620000  0.82180000  1.0 0.0494772671
C  C16  1  0.02290000  0.67380000  0.67820000  1.0 0.0494772671
C  C17  1  0.65090000  0.97710000  0.67820000  1.0 0.0494772671
C  C18  1  0.32620000  0.34910000  0.67820000  1.0 0.0494772671
C  C19  1  0.32620000  0.97710000  0.17820000  1.0 0.0494772671
C  C20  1  0.02290000  0.34910000  0.17820000  1.0 0.0494772671
C  C21  1  0.65090000  0.67380000  0.17820000  1.0 0.0494772671
C  C22  1  0.97710000  0.32620000  0.32180000  1.0 0.0494772671
C  C23  1  0.34910000  0.02290000  0.32180000  1.0 0.0494772671
C  C24  1  0.67380000  0.65090000  0.32180000  1.0 0.0494772671
C  C25  1  0.55110000  0.02510000  0.81880000  1.0 -0.1330006004
C  C26  1  0.97490000  0.52600000  0.81880000  1.0 -0.1330006004
C  C27  1  0.47400000  0.44890000  0.81880000  1.0 -0.1330006004
C  C28  1  0.02510000  0.55110000  0.68120000  1.0 -0.1330006004
C  C29  1  0.52600000  0.97490000  0.68120000  1.0 -0.1330006004
C  C30  1  0.44890000  0.47400000  0.68120000  1.0 -0.1330006004
C  C31  1  0.44890000  0.97490000  0.18120000  1.0 -0.1330006004
C  C32  1  0.02510000  0.47400000  0.18120000  1.0 -0.1330006004
C  C33  1  0.52600000  0.55110000  0.18120000  1.0 -0.1330006004
C  C34  1  0.97490000  0.44890000  0.31880000  1.0 -0.1330006004
C  C35  1  0.47400000  0.02510000  0.31880000  1.0 -0.1330006004
C  C36  1  0.55110000  0.52600000  0.31880000  1.0 -0.1330006004
C  C37  1  0.76410000  0.05930000  0.84400000  1.0 -0.5261046768
C  C38  1  0.94070000  0.70480000  0.84400000  1.0 -0.5261046768
C  C39  1  0.29520000  0.23590000  0.84400000  1.0 -0.5261046768
C  C40  1  0.05930000  0.76410000  0.65600000  1.0 -0.5261046768
C  C41  1  0.70480000  0.94070000  0.65600000  1.0 -0.5261046768
C  C42  1  0.23590000  0.29520000  0.65600000  1.0 -0.5261046768
C  C43  1  0.23590000  0.94070000  0.15600000  1.0 -0.5261046768
C  C44  1  0.05930000  0.29520000  0.15600000  1.0 -0.5261046768
C  C45  1  0.70480000  0.76410000  0.15600000  1.0 -0.5261046768
C  C46  1  0.94070000  0.23590000  0.34400000  1.0 -0.5261046768
C  C47  1  0.29520000  0.05930000  0.34400000  1.0 -0.5261046768
C  C48  1  0.76410000  0.70480000  0.34400000  1.0 -0.5261046768
C  C49  1  0.35700000  0.18150000  0.18760000  1.0 0.3859511832
C  C50  1  0.81850000  0.17550000  0.18760000  1.0 0.3859511832
C  C51  1  0.82450000  0.64300000  0.18760000  1.0 0.3859511832
C  C52  1  0.18150000  0.35700000  0.31240000  1.0 0.3859511832
C  C53  1  0.17550000  0.81850000  0.31240000  1.0 0.3859511832
C  C54  1  0.64300000  0.82450000  0.31240000  1.0 0.3859511832
C  C55  1  0.64300000  0.81850000  0.81240000  1.0 0.3859511832
C  C56  1  0.18150000  0.82450000  0.81240000  1.0 0.3859511832
C  C57  1  0.17550000  0.35700000  0.81240000  1.0 0.3859511832
C  C58  1  0.81850000  0.64300000  0.68760000  1.0 0.3859511832
C  C59  1  0.82450000  0.18150000  0.68760000  1.0 0.3859511832
C  C60  1  0.35700000  0.17550000  0.68760000  1.0 0.3859511832
C  C61  1  0.27390000  0.17310000  0.19300000  1.0 -0.5811499537
C  C62  1  0.82690000  0.10080000  0.19300000  1.0 -0.5811499537
C  C63  1  0.89920000  0.72610000  0.19300000  1.0 -0.5811499537
C  C64  1  0.17310000  0.27390000  0.30700000  1.0 -0.5811499537
C  C65  1  0.10080000  0.82690000  0.30700000  1.0 -0.5811499537
C  C66  1  0.72610000  0.89920000  0.30700000  1.0 -0.5811499537
C  C67  1  0.72610000  0.82690000  0.80700000  1.0 -0.5811499537
C  C68  1  0.17310000  0.89920000  0.80700000  1.0 -0.5811499537
C  C69  1  0.10080000  0.27390000  0.80700000  1.0 -0.5811499537
C  C70  1  0.82690000  0.72610000  0.69300000  1.0 -0.5811499537
C  C71  1  0.89920000  0.17310000  0.69300000  1.0 -0.5811499537
C  C72  1  0.27390000  0.10080000  0.69300000  1.0 -0.5811499537
N  N1  1  0.63970000  0.07760000  0.83160000  1.0 -0.1687509832
N  N2  1  0.92240000  0.56210000  0.83160000  1.0 -0.1687509832
N  N3  1  0.43790000  0.36030000  0.83160000  1.0 -0.1687509832
N  N4  1  0.07760000  0.63970000  0.66840000  1.0 -0.1687509832
N  N5  1  0.56210000  0.92240000  0.66840000  1.0 -0.1687509832
N  N6  1  0.36030000  0.43790000  0.66840000  1.0 -0.1687509832
N  N7  1  0.36030000  0.92240000  0.16840000  1.0 -0.1687509832
N  N8  1  0.07760000  0.43790000  0.16840000  1.0 -0.1687509832
N  N9  1  0.56210000  0.63970000  0.16840000  1.0 -0.1687509832
N  N10  1  0.92240000  0.36030000  0.33160000  1.0 -0.1687509832
N  N11  1  0.43790000  0.07760000  0.33160000  1.0 -0.1687509832
N  N12  1  0.63970000  0.56210000  0.33160000  1.0 -0.1687509832
O  O1  1  0.54406000  0.15673000  0.03410000  1.0 -0.7606459191
O  O2  1  0.84327000  0.38733000  0.03410000  1.0 -0.7606459191
O  O3  1  0.61267000  0.45594000  0.03410000  1.0 -0.7606459191
O  O4  1  0.15673000  0.54406000  0.46590000  1.0 -0.7606459191
O  O5  1  0.38733000  0.84327000  0.46590000  1.0 -0.7606459191
O  O6  1  0.45594000  0.61267000  0.46590000  1.0 -0.7606459191
O  O7  1  0.45594000  0.84327000  0.96590000  1.0 -0.7606459191
O  O8  1  0.15673000  0.61267000  0.96590000  1.0 -0.7606459191
O  O9  1  0.38733000  0.54406000  0.96590000  1.0 -0.7606459191
O  O10  1  0.84327000  0.45594000  0.53410000  1.0 -0.7606459191
O  O11  1  0.61267000  0.15673000  0.53410000  1.0 -0.7606459191
O  O12  1  0.54406000  0.38733000  0.53410000  1.0 -0.7606459191
O  O13  1  0.68832000  0.25384000  0.10890000  1.0 -0.7990098377
O  O14  1  0.74616000  0.43448000  0.10890000  1.0 -0.7990098377
O  O15  1  0.56552000  0.31168000  0.10890000  1.0 -0.7990098377
O  O16  1  0.25384000  0.68832000  0.39110000  1.0 -0.7990098377
O  O17  1  0.43448000  0.74616000  0.39110000  1.0 -0.7990098377
O  O18  1  0.31168000  0.56552000  0.39110000  1.0 -0.7990098377
O  O19  1  0.31168000  0.74616000  0.89110000  1.0 -0.7990098377
O  O20  1  0.25384000  0.56552000  0.89110000  1.0 -0.7990098377
O  O21  1  0.43448000  0.68832000  0.89110000  1.0 -0.7990098377
O  O22  1  0.74616000  0.31168000  0.60890000  1.0 -0.7990098377
O  O23  1  0.56552000  0.25384000  0.60890000  1.0 -0.7990098377
O  O24  1  0.68832000  0.43448000  0.60890000  1.0 -0.7990098377
O  O25  1  0.65141000  0.23227000  0.84300000  1.0 -0.7908749958
O  O26  1  0.76773000  0.41914000  0.84300000  1.0 -0.7908749958
O  O27  1  0.58086000  0.34859000  0.84300000  1.0 -0.7908749958
O  O28  1  0.23227000  0.65141000  0.65700000  1.0 -0.7908749958
O  O29  1  0.41914000  0.76773000  0.65700000  1.0 -0.7908749958
O  O30  1  0.34859000  0.58086000  0.65700000  1.0 -0.7908749958
O  O31  1  0.34859000  0.76773000  0.15700000  1.0 -0.7908749958
O  O32  1  0.23227000  0.58086000  0.15700000  1.0 -0.7908749958
O  O33  1  0.41914000  0.65141000  0.15700000  1.0 -0.7908749958
O  O34  1  0.76773000  0.34859000  0.34300000  1.0 -0.7908749958
O  O35  1  0.58086000  0.23227000  0.34300000  1.0 -0.7908749958
O  O36  1  0.65141000  0.41914000  0.34300000  1.0 -0.7908749958
O  O37  1  0.41320000  0.21950000  0.27180000  1.0 0.0167780567
O  O38  1  0.78050000  0.19370000  0.27180000  1.0 0.0167780567
O  O39  1  0.80630000  0.58680000  0.27180000  1.0 0.0167780567
O  O40  1  0.21950000  0.41320000  0.22820000  1.0 0.0167780567
O  O41  1  0.19370000  0.78050000  0.22820000  1.0 0.0167780567
O  O42  1  0.58680000  0.80630000  0.22820000  1.0 0.0167780567
O  O43  1  0.58680000  0.78050000  0.72820000  1.0 0.0167780567
O  O44  1  0.21950000  0.80630000  0.72820000  1.0 0.0167780567
O  O45  1  0.19370000  0.41320000  0.72820000  1.0 0.0167780567
O  O46  1  0.78050000  0.58680000  0.77180000  1.0 0.0167780567
O  O47  1  0.80630000  0.21950000  0.77180000  1.0 0.0167780567
O  O48  1  0.41320000  0.19370000  0.77180000  1.0 0.0167780567
O  O49  1  0.37460000  0.14980000  0.07730000  1.0 0.0321151981
O  O50  1  0.85020000  0.22480000  0.07730000  1.0 0.0321151981
O  O51  1  0.77520000  0.62540000  0.07730000  1.0 0.0321151981
O  O52  1  0.14980000  0.37460000  0.42270000  1.0 0.0321151981
O  O53  1  0.22480000  0.85020000  0.42270000  1.0 0.0321151981
O  O54  1  0.62540000  0.77520000  0.42270000  1.0 0.0321151981
O  O55  1  0.62540000  0.85020000  0.92270000  1.0 0.0321151981
O  O56  1  0.14980000  0.77520000  0.92270000  1.0 0.0321151981
O  O57  1  0.22480000  0.37460000  0.92270000  1.0 0.0321151981
O  O58  1  0.85020000  0.62540000  0.57730000  1.0 0.0321151981
O  O59  1  0.77520000  0.14980000  0.57730000  1.0 0.0321151981
O  O60  1  0.37460000  0.22480000  0.57730000  1.0 0.0321151981
O  O61  1  0.81140000  0.25250000  0.81050000  1.0 -0.064339031
O  O62  1  0.74750000  0.55890000  0.81050000  1.0 -0.064339031
O  O63  1  0.44110000  0.18860000  0.81050000  1.0 -0.064339031
O  O64  1  0.25250000  0.81140000  0.68950000  1.0 -0.064339031
O  O65  1  0.55890000  0.74750000  0.68950000  1.0 -0.064339031
O  O66  1  0.18860000  0.44110000  0.68950000  1.0 -0.064339031
O  O67  1  0.18860000  0.74750000  0.18950000  1.0 -0.064339031
O  O68  1  0.25250000  0.44110000  0.18950000  1.0 -0.064339031
O  O69  1  0.55890000  0.81140000  0.18950000  1.0 -0.064339031
O  O70  1  0.74750000  0.18860000  0.31050000  1.0 -0.064339031
O  O71  1  0.44110000  0.25250000  0.31050000  1.0 -0.064339031
O  O72  1  0.81140000  0.55890000  0.31050000  1.0 -0.064339031
O  O73  1  0.75350000  0.15070000  0.54020000  1.0 -0.0540008799
O  O74  1  0.84930000  0.60280000  0.54020000  1.0 -0.0540008799
O  O75  1  0.39720000  0.24650000  0.54020000  1.0 -0.0540008799
O  O76  1  0.15070000  0.75350000  0.95980000  1.0 -0.0540008799
O  O77  1  0.60280000  0.84930000  0.95980000  1.0 -0.0540008799
O  O78  1  0.24650000  0.39720000  0.95980000  1.0 -0.0540008799
O  O79  1  0.24650000  0.84930000  0.45980000  1.0 -0.0540008799
O  O80  1  0.15070000  0.39720000  0.45980000  1.0 -0.0540008799
O  O81  1  0.60280000  0.75350000  0.45980000  1.0 -0.0540008799
O  O82  1  0.84930000  0.24650000  0.04020000  1.0 -0.0540008799
O  O83  1  0.39720000  0.15070000  0.04020000  1.0 -0.0540008799
O  O84  1  0.75350000  0.60280000  0.04020000  1.0 -0.0540008799
