# DDEC6 charges by PACMAN v1.1 (https://github.com/mtap-research/PACMAN-charge/)
data_YEMMAF_ASR_pacman
_symmetry_space_group_name_H-M   'P 1'
_cell_length_a   16.26920000
_cell_length_b   16.26920000
_cell_length_c   16.26920000
_cell_angle_alpha   118.39600000
_cell_angle_beta   118.39600000
_cell_angle_gamma   118.39600000
_symmetry_Int_Tables_number   1
_chemical_formula_structural   NiPC3NO3
_chemical_formula_sum   'Ni6 P6 C18 N6 O18'
_cell_volume   1404.74352324
_cell_formula_units_Z   6
loop_
 _symmetry_equiv_pos_site_id
 _symmetry_equiv_pos_as_xyz
  1  'x, y, z'
loop_
 _atom_site_type_symbol
 _atom_site_label
 _atom_site_symmetry_multiplicity
 _atom_site_fract_x
 _atom_site_fract_y
 _atom_site_fract_z
 _atom_site_occupancy
 _atom_site_charge
Ni  Ni1  1  0.44224000  0.68956000  0.02330000  1.0 1.0030668752
Ni  Ni2  1  0.68956000  0.02330000  0.44224000  1.0 1.0030668752
Ni  Ni3  1  0.02330000  0.44224000  0.68956000  1.0 1.0030668752
Ni  Ni4  1  0.55776000  0.31044000  0.97670000  1.0 1.0030668752
Ni  Ni5  1  0.31044000  0.97670000  0.55776000  1.0 1.0030668752
Ni  Ni6  1  0.97670000  0.55776000  0.31044000  1.0 1.0030668752
P  P1  1  0.99894000  0.18645000  0.53331000  1.0 1.3471798874
P  P2  1  0.18645000  0.53331000  0.99894000  1.0 1.3471798874
P  P3  1  0.53331000  0.99894000  0.18645000  1.0 1.3471798874
P  P4  1  0.00106000  0.81355000  0.46669000  1.0 1.3471798874
P  P5  1  0.81355000  0.46669000  0.00106000  1.0 1.3471798874
P  P6  1  0.46669000  0.00106000  0.81355000  1.0 1.3471798874
C  C1  1  0.49910000  0.52970000  0.92920000  1.0 0.0826050169
C  C2  1  0.52970000  0.92920000  0.49910000  1.0 0.0826050169
C  C3  1  0.92920000  0.49910000  0.52970000  1.0 0.0826050169
C  C4  1  0.50090000  0.47030000  0.07080000  1.0 0.0826050169
C  C5  1  0.47030000  0.07080000  0.50090000  1.0 0.0826050169
C  C6  1  0.07080000  0.50090000  0.47030000  1.0 0.0826050169
C  C7  1  0.52730000  0.60200000  0.12270000  1.0 0.1197613069
C  C8  1  0.60200000  0.12270000  0.52730000  1.0 0.1197613069
C  C9  1  0.12270000  0.52730000  0.60200000  1.0 0.1197613069
C  C10  1  0.47270000  0.39800000  0.87730000  1.0 0.1197613069
C  C11  1  0.39800000  0.87730000  0.47270000  1.0 0.1197613069
C  C12  1  0.87730000  0.47270000  0.39800000  1.0 0.1197613069
C  C13  1  0.17170000  0.27680000  0.74150000  1.0 -0.3368017359
C  C14  1  0.27680000  0.74150000  0.17170000  1.0 -0.3368017359
C  C15  1  0.74150000  0.17170000  0.27680000  1.0 -0.3368017359
C  C16  1  0.82830000  0.72320000  0.25850000  1.0 -0.3346733971
C  C17  1  0.72320000  0.25850000  0.82830000  1.0 -0.3368017359
C  C18  1  0.25850000  0.82830000  0.72320000  1.0 -0.3368017359
N  N1  1  0.42010000  0.52730000  0.96440000  1.0 0.0079827733
N  N2  1  0.52730000  0.96440000  0.42010000  1.0 0.0079827733
N  N3  1  0.96440000  0.42010000  0.52730000  1.0 0.0079827733
N  N4  1  0.57990000  0.47270000  0.03560000  1.0 0.0079827733
N  N5  1  0.47270000  0.03560000  0.57990000  1.0 0.0079827733
N  N6  1  0.03560000  0.57990000  0.47270000  1.0 0.0079827733
O  O1  1  0.99910000  0.13260000  0.42380000  1.0 -0.6638993247
O  O2  1  0.13260000  0.42380000  0.99910000  1.0 -0.6653375848
O  O3  1  0.42380000  0.99910000  0.13260000  1.0 -0.6653375848
O  O4  1  0.00090000  0.86740000  0.57620000  1.0 -0.6638993247
O  O5  1  0.86740000  0.57620000  0.00090000  1.0 -0.6653375848
O  O6  1  0.57620000  0.00090000  0.86740000  1.0 -0.6653375848
O  O7  1  0.74900000  0.99980000  0.35880000  1.0 -0.810136549
O  O8  1  0.99980000  0.35880000  0.74900000  1.0 -0.810136549
O  O9  1  0.35880000  0.74900000  0.99980000  1.0 -0.810136549
O  O10  1  0.25100000  0.00020000  0.64120000  1.0 -0.810136549
O  O11  1  0.00020000  0.64120000  0.25100000  1.0 -0.810136549
O  O12  1  0.64120000  0.25100000  0.00020000  1.0 -0.810136549
O  O13  1  0.11490000  0.38990000  0.68160000  1.0 -0.749154133
O  O14  1  0.38990000  0.68160000  0.11490000  1.0 -0.749154133
O  O15  1  0.68160000  0.11490000  0.38990000  1.0 -0.749154133
O  O16  1  0.88510000  0.61010000  0.31840000  1.0 -0.749154133
O  O17  1  0.61010000  0.31840000  0.88510000  1.0 -0.749154133
O  O18  1  0.31840000  0.88510000  0.61010000  1.0 -0.749154133
