# DDEC6 charges by PACMAN v1.1 (https://github.com/mtap-research/PACMAN-charge/)
data_YEMTIV_ASR_pacman
_symmetry_space_group_name_H-M   'P 1'
_cell_length_a   10.46510000
_cell_length_b   10.46510000
_cell_length_c   10.46510000
_cell_angle_alpha   98.59650000
_cell_angle_beta   98.59650000
_cell_angle_gamma   134.51100000
_symmetry_Int_Tables_number   1
_chemical_formula_structural   CuSiH16C24(N2F9)2
_chemical_formula_sum   'Cu1 Si1 H16 C24 N4 F18'
_cell_volume   753.76211878
_cell_formula_units_Z   1
loop_
 _symmetry_equiv_pos_site_id
 _symmetry_equiv_pos_as_xyz
  1  'x, y, z'
loop_
 _atom_site_type_symbol
 _atom_site_label
 _atom_site_symmetry_multiplicity
 _atom_site_fract_x
 _atom_site_fract_y
 _atom_site_fract_z
 _atom_site_occupancy
 _atom_site_charge
Cu  Cu1  1  0.50000000  0.50000000  0.00000000  1.0 0.4568936256
Si  Si1  1  0.00000000  0.00000000  0.00000000  1.0 0.4292673495
H  H1  1  0.25080000  0.58380000  0.33300000  1.0 0.1035059941
H  H2  1  0.74920000  0.41620000  0.66700000  1.0 0.1035059941
H  H3  1  0.25080000  0.91780000  0.66700000  1.0 0.1035059941
H  H4  1  0.74920000  0.08220000  0.33300000  1.0 0.1035059941
H  H5  1  0.08220000  0.74920000  0.33300000  1.0 0.1035059941
H  H6  1  0.58380000  0.25080000  0.33300000  1.0 0.1035059941
H  H7  1  0.91780000  0.25080000  0.66700000  1.0 0.1035059941
H  H8  1  0.41620000  0.74920000  0.66700000  1.0 0.1035059941
H  H9  1  0.26130000  0.42370000  0.16240000  1.0 0.0266009661
H  H10  1  0.73870000  0.57630000  0.83760000  1.0 0.0266009661
H  H11  1  0.26130000  0.09890000  0.83760000  1.0 0.0266009661
H  H12  1  0.73870000  0.90110000  0.16240000  1.0 0.0266009661
H  H13  1  0.90110000  0.73870000  0.16240000  1.0 0.0266009661
H  H14  1  0.42370000  0.26130000  0.16240000  1.0 0.0266009661
H  H15  1  0.09890000  0.26130000  0.83760000  1.0 0.0266009661
H  H16  1  0.57630000  0.73870000  0.83760000  1.0 0.0266009661
C  C1  1  0.35430000  0.65440000  0.30010000  1.0 -0.1729507718
C  C2  1  0.64570000  0.34560000  0.69990000  1.0 -0.1729507718
C  C3  1  0.35430000  0.05420000  0.69990000  1.0 -0.1729507718
C  C4  1  0.64570000  0.94580000  0.30010000  1.0 -0.1729507718
C  C5  1  0.94580000  0.64570000  0.30010000  1.0 -0.1729507718
C  C6  1  0.65440000  0.35430000  0.30010000  1.0 -0.1729507718
C  C7  1  0.05420000  0.35430000  0.69990000  1.0 -0.1729507718
C  C8  1  0.34560000  0.64570000  0.69990000  1.0 -0.1729507718
C  C9  1  0.36240000  0.56020000  0.19780000  1.0 0.0370221724
C  C10  1  0.63760000  0.43980000  0.80220000  1.0 0.0370221724
C  C11  1  0.36240000  0.16460000  0.80220000  1.0 0.0370221724
C  C12  1  0.63760000  0.83540000  0.19780000  1.0 0.0370221724
C  C13  1  0.83540000  0.63760000  0.19780000  1.0 0.0370221724
C  C14  1  0.56020000  0.36240000  0.19780000  1.0 0.0370221724
C  C15  1  0.16460000  0.36240000  0.80220000  1.0 0.0370221724
C  C16  1  0.43980000  0.63760000  0.80220000  1.0 0.0370221724
C  C17  1  0.50000000  0.95690000  0.45690000  1.0 -0.1139564537
C  C18  1  0.50000000  0.04310000  0.54310000  1.0 -0.1139564537
C  C19  1  0.95690000  0.50000000  0.45690000  1.0 -0.1139564537
C  C20  1  0.04310000  0.50000000  0.54310000  1.0 -0.1151075634
C  C21  1  0.50000000  0.85190000  0.35190000  1.0 0.1358630982
C  C22  1  0.50000000  0.14810000  0.64810000  1.0 0.1358630982
C  C23  1  0.85190000  0.50000000  0.35190000  1.0 0.1358630982
C  C24  1  0.14810000  0.50000000  0.64810000  1.0 0.1358630982
N  N1  1  0.50000000  0.64760000  0.14760000  1.0 -0.285360736
N  N2  1  0.50000000  0.35240000  0.85240000  1.0 -0.285360736
N  N3  1  0.64760000  0.50000000  0.14760000  1.0 -0.285360736
N  N4  1  0.35240000  0.50000000  0.85240000  1.0 -0.285360736
F  F1  1  0.79080000  0.79080000  0.00000000  1.0 -0.5828227672
F  F2  1  0.20920000  0.20920000  0.00000000  1.0 -0.5828227672
F  F3  1  0.11980000  0.02780000  0.14760000  1.0 0.0816876691
F  F4  1  0.11980000  0.97220000  0.09200000  1.0 0.0816876691
F  F5  1  0.88020000  0.97220000  0.85240000  1.0 0.0816876691
F  F6  1  0.88020000  0.02780000  0.90800000  1.0 0.0816876691
F  F7  1  0.02780000  0.11980000  0.14760000  1.0 0.0816876691
F  F8  1  0.02780000  0.88020000  0.90800000  1.0 0.0816876691
F  F9  1  0.97220000  0.11980000  0.09200000  1.0 0.0816876691
F  F10  1  0.97220000  0.88020000  0.85240000  1.0 0.0816876691
F  F11  1  0.89670000  0.93320000  0.82990000  1.0 0.0909404744
F  F12  1  0.89670000  0.06680000  0.96350000  1.0 0.0909404744
F  F13  1  0.10330000  0.06680000  0.17010000  1.0 0.0909404744
F  F14  1  0.10330000  0.93320000  0.03650000  1.0 0.0909404744
F  F15  1  0.93320000  0.89670000  0.82990000  1.0 0.0909404744
F  F16  1  0.93320000  0.10330000  0.03650000  1.0 0.0909404744
F  F17  1  0.06680000  0.89670000  0.96350000  1.0 0.0909404744
F  F18  1  0.06680000  0.10330000  0.17010000  1.0 0.0909404744
