# DDEC6 charges by PACMAN v1.1 (https://github.com/mtap-research/PACMAN-charge/)
data_YEPTIZ_FSR_pacman
_symmetry_space_group_name_H-M   'P 1'
_cell_length_a   8.11770000
_cell_length_b   13.07770000
_cell_length_c   13.09350000
_cell_angle_alpha   89.86600000
_cell_angle_beta   87.24000000
_cell_angle_gamma   89.68000000
_symmetry_Int_Tables_number   1
_chemical_formula_structural   CuSiH16C20(N2F)6
_chemical_formula_sum   'Cu2 Si2 H32 C40 N24 F12'
_cell_volume   1388.37996952
_cell_formula_units_Z   2
loop_
 _symmetry_equiv_pos_site_id
 _symmetry_equiv_pos_as_xyz
  1  'x, y, z'
loop_
 _atom_site_type_symbol
 _atom_site_label
 _atom_site_symmetry_multiplicity
 _atom_site_fract_x
 _atom_site_fract_y
 _atom_site_fract_z
 _atom_site_occupancy
 _atom_site_charge
Cu  Cu1  1  0.75000000  0.75000000  0.75000000  1.0 0.7000827178
Cu  Cu2  1  0.25000000  0.25000000  0.25000000  1.0 0.7000827178
Si  Si1  1  0.24972000  0.74984000  0.75000000  1.0 1.7558463201
Si  Si2  1  0.75028000  0.25016000  0.25000000  1.0 1.7558463201
H  H1  1  0.52082000  0.58966000  0.81389000  1.0 0.1408434078
H  H2  1  0.51496000  0.39840000  0.82081000  1.0 0.110459613
H  H3  1  0.52084000  0.91020000  0.68611000  1.0 0.132593516
H  H4  1  0.51504000  0.09972000  0.67919000  1.0 0.1008244365
H  H5  1  0.52091000  0.68669000  0.59043000  1.0 0.1408434078
H  H6  1  0.51512000  0.68072000  0.39967000  1.0 0.1008244365
H  H7  1  0.52076000  0.81316000  0.90957000  1.0 0.1239985689
H  H8  1  0.51523000  0.82419000  0.10098000  1.0 0.1008244365
H  H9  1  0.97914000  0.90970000  0.81389000  1.0 0.132593516
H  H10  1  0.98505000  0.09914000  0.82081000  1.0 0.1008244365
H  H11  1  0.97921000  0.59045000  0.68611000  1.0 0.1408434078
H  H12  1  0.98508000  0.39926000  0.67919000  1.0 0.110459613
H  H13  1  0.97923000  0.81492000  0.59043000  1.0 0.1239985689
H  H14  1  0.98518000  0.82283000  0.39967000  1.0 0.1008244365
H  H15  1  0.97911000  0.68522000  0.90957000  1.0 0.1408434078
H  H16  1  0.98531000  0.68238000  0.10098000  1.0 0.1008244365
H  H17  1  0.47918000  0.41034000  0.18611000  1.0 0.1408434078
H  H18  1  0.48504000  0.60160000  0.17919000  1.0 0.110459613
H  H19  1  0.47916000  0.08980000  0.31389000  1.0 0.132593516
H  H20  1  0.48496000  0.90028000  0.32081000  1.0 0.1008244365
H  H21  1  0.47909000  0.31331000  0.40957000  1.0 0.1408434078
H  H22  1  0.48488000  0.31928000  0.60033000  1.0 0.1008244365
H  H23  1  0.47924000  0.18684000  0.09043000  1.0 0.1239985689
H  H24  1  0.48477000  0.17581000  0.89902000  1.0 0.1008244365
H  H25  1  0.02086000  0.09030000  0.18611000  1.0 0.132593516
H  H26  1  0.01495000  0.90086000  0.17919000  1.0 0.1008244365
H  H27  1  0.02079000  0.40955000  0.31389000  1.0 0.1408434078
H  H28  1  0.01492000  0.60074000  0.32081000  1.0 0.110459613
H  H29  1  0.02077000  0.18508000  0.40957000  1.0 0.1239985689
H  H30  1  0.01482000  0.17717000  0.60033000  1.0 0.1008244365
H  H31  1  0.02089000  0.31478000  0.09043000  1.0 0.1408434078
H  H32  1  0.01469000  0.31762000  0.89902000  1.0 0.1008244365
C  C1  1  0.62176000  0.54432000  0.78712000  1.0 0.1239985689
C  C2  1  0.61904000  0.43784000  0.78982000  1.0 -0.2513749555
C  C3  1  0.62176000  0.95560000  0.71288000  1.0 0.1239985689
C  C4  1  0.61910000  0.06034000  0.71018000  1.0 -0.2513749555
C  C5  1  0.62185000  0.71379000  0.54503000  1.0 0.110459613
C  C6  1  0.61917000  0.71161000  0.43882000  1.0 -0.2300997764
C  C7  1  0.62168000  0.78613000  0.95497000  1.0 0.150800424
C  C8  1  0.61932000  0.79336000  0.06183000  1.0 -0.2878193722
C  C9  1  0.87821000  0.95531000  0.78712000  1.0 0.1239985689
C  C10  1  0.88100000  0.06002000  0.78982000  1.0 -0.2447641805
C  C11  1  0.87828000  0.54477000  0.71288000  1.0 0.132593516
C  C12  1  0.88100000  0.43832000  0.71018000  1.0 -0.2613247946
C  C13  1  0.87832000  0.78828000  0.54503000  1.0 0.1408434078
C  C14  1  0.88110000  0.79153000  0.43882000  1.0 -0.2878193722
C  C15  1  0.87816000  0.71180000  0.95497000  1.0 0.110459613
C  C16  1  0.88125000  0.71360000  0.06183000  1.0 -0.2300997764
C  C17  1  0.75003000  0.38401000  0.75000000  1.0 0.1559512004
C  C18  1  0.75005000  0.11426000  0.75000000  1.0 0.150800424
C  C19  1  0.75015000  0.75185000  0.38488000  1.0 0.150800424
C  C20  1  0.75026000  0.75321000  0.11578000  1.0 0.150800424
C  C21  1  0.37824000  0.45568000  0.21288000  1.0 0.1239985689
C  C22  1  0.38096000  0.56216000  0.21018000  1.0 -0.2513749555
C  C23  1  0.37824000  0.04440000  0.28712000  1.0 0.1239985689
C  C24  1  0.38090000  0.93966000  0.28982000  1.0 -0.2513749555
C  C25  1  0.37815000  0.28621000  0.45497000  1.0 0.110459613
C  C26  1  0.38083000  0.28839000  0.56118000  1.0 -0.2300997764
C  C27  1  0.37832000  0.21387000  0.04503000  1.0 0.150800424
C  C28  1  0.38068000  0.20664000  0.93817000  1.0 -0.2878193722
C  C29  1  0.12179000  0.04469000  0.21288000  1.0 0.1239985689
C  C30  1  0.11900000  0.93998000  0.21018000  1.0 -0.2513749555
C  C31  1  0.12172000  0.45523000  0.28712000  1.0 0.132593516
C  C32  1  0.11900000  0.56168000  0.28982000  1.0 -0.2613247946
C  C33  1  0.12168000  0.21172000  0.45497000  1.0 0.1408434078
C  C34  1  0.11890000  0.20847000  0.56118000  1.0 -0.2878193722
C  C35  1  0.12184000  0.28820000  0.04503000  1.0 0.110459613
C  C36  1  0.11875000  0.28640000  0.93817000  1.0 -0.2300997764
C  C37  1  0.24997000  0.61599000  0.25000000  1.0 0.1559512004
C  C38  1  0.24995000  0.88574000  0.25000000  1.0 0.150800424
C  C39  1  0.24985000  0.24815000  0.61512000  1.0 0.150800424
C  C40  1  0.24974000  0.24679000  0.88422000  1.0 0.150800424
N  N1  1  0.75001000  0.59595000  0.75000000  1.0 -0.2066281155
N  N2  1  0.70104000  0.29023000  0.75000000  1.0 0.039196829
N  N3  1  0.70105000  0.20799000  0.75000000  1.0 0.0346064375
N  N4  1  0.70120000  0.75231000  0.29135000  1.0 0.039196829
N  N5  1  0.70123000  0.75272000  0.20930000  1.0 0.0346064375
N  N6  1  0.74999000  0.90405000  0.75000000  1.0 -0.2300997764
N  N7  1  0.75006000  0.75078000  0.59632000  1.0 -0.2300997764
N  N8  1  0.74994000  0.74922000  0.90368000  1.0 -0.2300997764
N  N9  1  0.79904000  0.20802000  0.75000000  1.0 0.039196829
N  N10  1  0.79903000  0.29026000  0.75000000  1.0 0.039196829
N  N11  1  0.79918000  0.75234000  0.29135000  1.0 0.039196829
N  N12  1  0.79922000  0.75275000  0.20930000  1.0 0.039196829
N  N13  1  0.24999000  0.40405000  0.25000000  1.0 -0.2066281155
N  N14  1  0.29896000  0.70977000  0.25000000  1.0 0.039196829
N  N15  1  0.29895000  0.79201000  0.25000000  1.0 0.0346064375
N  N16  1  0.29880000  0.24769000  0.70865000  1.0 0.039196829
N  N17  1  0.29877000  0.24728000  0.79070000  1.0 0.0346064375
N  N18  1  0.25001000  0.09595000  0.25000000  1.0 -0.2300997764
N  N19  1  0.24994000  0.24922000  0.40368000  1.0 -0.2300997764
N  N20  1  0.25006000  0.25078000  0.09632000  1.0 -0.2300997764
N  N21  1  0.20096000  0.79198000  0.25000000  1.0 0.039196829
N  N22  1  0.20097000  0.70974000  0.25000000  1.0 0.039196829
N  N23  1  0.20082000  0.24766000  0.70865000  1.0 0.039196829
N  N24  1  0.20078000  0.24725000  0.79070000  1.0 0.039196829
F  F1  1  0.24968000  0.65522000  0.84393000  1.0 -0.5583308752
F  F2  1  0.24976000  0.84447000  0.65607000  1.0 -0.5583308752
F  F3  1  0.24976000  0.65616000  0.65607000  1.0 -0.5583308752
F  F4  1  0.24968000  0.84353000  0.84393000  1.0 -0.5539015547
F  F5  1  0.47708000  0.74992000  0.75000000  1.0 -0.5583308752
F  F6  1  0.02236000  0.74977000  0.75000000  1.0 -0.5583308752
F  F7  1  0.75032000  0.34478000  0.15607000  1.0 -0.5583308752
F  F8  1  0.75024000  0.15553000  0.34393000  1.0 -0.5583308752
F  F9  1  0.75024000  0.34384000  0.34393000  1.0 -0.5539015547
F  F10  1  0.75032000  0.15647000  0.15607000  1.0 -0.5539015547
F  F11  1  0.52292000  0.25008000  0.25000000  1.0 -0.5583308752
F  F12  1  0.97764000  0.25023000  0.25000000  1.0 -0.5583308752
