# DDEC6 charges by PACMAN v1.1 (https://github.com/mtap-research/PACMAN-charge/)
data_YEQSUM_FSR_pacman
_symmetry_space_group_name_H-M   'P 1'
_cell_length_a   8.44170000
_cell_length_b   8.44170000
_cell_length_c   14.49200000
_cell_angle_alpha   90.00000000
_cell_angle_beta   90.00000000
_cell_angle_gamma   90.00000000
_symmetry_Int_Tables_number   1
_chemical_formula_structural   Cu2H12C14XeO8
_chemical_formula_sum   'Cu4 H24 C28 Xe2 O16'
_cell_volume   1032.73323551
_cell_formula_units_Z   2
loop_
 _symmetry_equiv_pos_site_id
 _symmetry_equiv_pos_as_xyz
  1  'x, y, z'
loop_
 _atom_site_type_symbol
 _atom_site_label
 _atom_site_symmetry_multiplicity
 _atom_site_fract_x
 _atom_site_fract_y
 _atom_site_fract_z
 _atom_site_occupancy
 _atom_site_charge
Cu  Cu1  1  0.34967000  0.00000000  0.50000000  1.0 0.8024036552
Cu  Cu2  1  0.65033000  0.00000000  0.50000000  1.0 0.8024036552
Cu  Cu3  1  0.00000000  0.34967000  0.00000000  1.0 0.8024036552
Cu  Cu4  1  0.00000000  0.65033000  0.00000000  1.0 0.8024036552
H  H1  1  0.74214000  0.35024000  0.71140000  1.0 0.1301109993
H  H2  1  0.25786000  0.64976000  0.71140000  1.0 0.1301109993
H  H3  1  0.64976000  0.74214000  0.21140000  1.0 0.1301109993
H  H4  1  0.35024000  0.25786000  0.21140000  1.0 0.1301109993
H  H5  1  0.25786000  0.35024000  0.28860000  1.0 0.1301109993
H  H6  1  0.74214000  0.64976000  0.28860000  1.0 0.1301109993
H  H7  1  0.35024000  0.74214000  0.78860000  1.0 0.1301109993
H  H8  1  0.64976000  0.25786000  0.78860000  1.0 0.1301109993
H  H9  1  0.25786000  0.64976000  0.28860000  1.0 0.1301109993
H  H10  1  0.74214000  0.35024000  0.28860000  1.0 0.1301109993
H  H11  1  0.35024000  0.25786000  0.78860000  1.0 0.1301109993
H  H12  1  0.64976000  0.74214000  0.78860000  1.0 0.1301109993
H  H13  1  0.74214000  0.64976000  0.71140000  1.0 0.1301109993
H  H14  1  0.25786000  0.35024000  0.71140000  1.0 0.1301109993
H  H15  1  0.64976000  0.25786000  0.21140000  1.0 0.1301109993
H  H16  1  0.35024000  0.74214000  0.21140000  1.0 0.1301109993
H  H17  1  0.59308000  0.50000000  0.58858000  1.0 0.1301109993
H  H18  1  0.40692000  0.50000000  0.58858000  1.0 0.1301109993
H  H19  1  0.50000000  0.59308000  0.08858000  1.0 0.1301109993
H  H20  1  0.50000000  0.40692000  0.08858000  1.0 0.1301109993
H  H21  1  0.40692000  0.50000000  0.41142000  1.0 0.1301109993
H  H22  1  0.59308000  0.50000000  0.41142000  1.0 0.1301109993
H  H23  1  0.50000000  0.59308000  0.91142000  1.0 0.1301109993
H  H24  1  0.50000000  0.40692000  0.91142000  1.0 0.1301109993
C  C1  1  0.50000000  0.35030000  0.68920000  1.0 0.0796034227
C  C2  1  0.50000000  0.21260000  0.62140000  1.0 0.5448528026
C  C3  1  0.50000000  0.64970000  0.68920000  1.0 0.0796034227
C  C4  1  0.50000000  0.78740000  0.62140000  1.0 0.5448528026
C  C5  1  0.64970000  0.50000000  0.18920000  1.0 0.0796034227
C  C6  1  0.78740000  0.50000000  0.12140000  1.0 0.5448528026
C  C7  1  0.35030000  0.50000000  0.18920000  1.0 0.0796034227
C  C8  1  0.21260000  0.50000000  0.12140000  1.0 0.5448528026
C  C9  1  0.50000000  0.35030000  0.31080000  1.0 0.0796034227
C  C10  1  0.50000000  0.21260000  0.37860000  1.0 0.5448528026
C  C11  1  0.50000000  0.64970000  0.31080000  1.0 0.0796034227
C  C12  1  0.50000000  0.78740000  0.37860000  1.0 0.5452565219
C  C13  1  0.35030000  0.50000000  0.81080000  1.0 0.0796034227
C  C14  1  0.21260000  0.50000000  0.87860000  1.0 0.5448528026
C  C15  1  0.64970000  0.50000000  0.81080000  1.0 0.0796034227
C  C16  1  0.78740000  0.50000000  0.87860000  1.0 0.5448528026
C  C17  1  0.64830000  0.35170000  0.75000000  1.0 -0.2600191419
C  C18  1  0.35170000  0.64830000  0.75000000  1.0 -0.2600191419
C  C19  1  0.64830000  0.64830000  0.25000000  1.0 -0.2600191419
C  C20  1  0.35170000  0.35170000  0.25000000  1.0 -0.2600191419
C  C21  1  0.35170000  0.64830000  0.25000000  1.0 -0.2600191419
C  C22  1  0.64830000  0.35170000  0.25000000  1.0 -0.2600191419
C  C23  1  0.35170000  0.35170000  0.75000000  1.0 -0.2600191419
C  C24  1  0.64830000  0.64830000  0.75000000  1.0 -0.2600191419
C  C25  1  0.50000000  0.50000000  0.62780000  1.0 -0.2476587777
C  C26  1  0.50000000  0.50000000  0.12780000  1.0 -0.2476587777
C  C27  1  0.50000000  0.50000000  0.37220000  1.0 -0.2476587777
C  C28  1  0.50000000  0.50000000  0.87220000  1.0 -0.2476587777
Xe  Xe1  1  0.00000000  0.00000000  0.50000000  1.0 -0.0075104646
Xe  Xe2  1  0.00000000  0.00000000  0.00000000  1.0 -0.0075104646
O  O1  1  0.36680000  0.16150000  0.59490000  1.0 -0.5146664713
O  O2  1  0.63320000  0.83850000  0.59490000  1.0 -0.5152710412
O  O3  1  0.83850000  0.36680000  0.09490000  1.0 -0.5152710412
O  O4  1  0.16150000  0.63320000  0.09490000  1.0 -0.5152710412
O  O5  1  0.63320000  0.16150000  0.40510000  1.0 -0.5152710412
O  O6  1  0.36680000  0.83850000  0.40510000  1.0 -0.5152710412
O  O7  1  0.16150000  0.36680000  0.90510000  1.0 -0.5152710412
O  O8  1  0.83850000  0.63320000  0.90510000  1.0 -0.5152710412
O  O9  1  0.63320000  0.83850000  0.40510000  1.0 -0.5152710412
O  O10  1  0.36680000  0.16150000  0.40510000  1.0 -0.5152710412
O  O11  1  0.16150000  0.63320000  0.90510000  1.0 -0.5152710412
O  O12  1  0.83850000  0.36680000  0.90510000  1.0 -0.5146664713
O  O13  1  0.36680000  0.83850000  0.59490000  1.0 -0.5152710412
O  O14  1  0.63320000  0.16150000  0.59490000  1.0 -0.5146664713
O  O15  1  0.83850000  0.63320000  0.09490000  1.0 -0.5152710412
O  O16  1  0.16150000  0.36680000  0.09490000  1.0 -0.5152710412
