# DDEC6 charges by PACMAN v1.1 (https://github.com/mtap-research/PACMAN-charge/)
data_YEXPIE_ion_pacman
_symmetry_space_group_name_H-M   'P 1'
_cell_length_a   9.94910000
_cell_length_b   10.39850000
_cell_length_c   16.13600000
_cell_angle_alpha   69.89870000
_cell_angle_beta   77.62660000
_cell_angle_gamma   64.32900000
_symmetry_Int_Tables_number   1
_chemical_formula_structural   EuH18C28S2N5O8
_chemical_formula_sum   'Eu2 H36 C56 S4 N10 O16'
_cell_volume   1408.71552723
_cell_formula_units_Z   2
loop_
 _symmetry_equiv_pos_site_id
 _symmetry_equiv_pos_as_xyz
  1  'x, y, z'
loop_
 _atom_site_type_symbol
 _atom_site_label
 _atom_site_symmetry_multiplicity
 _atom_site_fract_x
 _atom_site_fract_y
 _atom_site_fract_z
 _atom_site_occupancy
 _atom_site_charge
Eu  Eu1  1  0.59281000  0.36183000  0.91628000  1.0 2.0390621975
Eu  Eu2  1  0.40719000  0.63817000  0.08372000  1.0 2.0390621975
H  H1  1  0.49970000  0.93823000  0.90337000  1.0 0.1482027724
H  H2  1  0.50030000  0.06177000  0.09663000  1.0 0.1482027724
H  H3  1  0.62200000  0.18418000  0.67252000  1.0 0.1196394853
H  H4  1  0.37800000  0.81582000  0.32748000  1.0 0.1196394853
H  H5  1  0.66310000  0.77381000  0.69469000  1.0 0.1196394853
H  H6  1  0.33690000  0.22619000  0.30531000  1.0 0.1196394853
H  H7  1  0.72630000  0.88580000  0.40270000  1.0 0.1091181842
H  H8  1  0.27370000  0.11420000  0.59730000  1.0 0.1091181842
H  H9  1  0.64820000  0.86000000  0.55090000  1.0 0.1022113479
H  H10  1  0.35180000  0.14000000  0.44910000  1.0 0.1022113479
H  H11  1  0.71710000  0.27714000  0.25106000  1.0 0.1196394853
H  H12  1  0.28290000  0.72286000  0.74894000  1.0 0.1196394853
H  H13  1  0.95940000  0.12171000  0.04789000  1.0 0.1318580612
H  H14  1  0.04060000  0.87829000  0.95211000  1.0 0.1318580612
H  H15  1  0.00250000  0.84959000  0.29551000  1.0 0.1091181842
H  H16  1  0.99750000  0.15041000  0.70449000  1.0 0.1091181842
H  H17  1  0.60150000  0.19340000  0.37630000  1.0 0.1091181842
H  H18  1  0.39850000  0.80660000  0.62370000  1.0 0.1091181842
H  H19  1  0.52310000  0.16810000  0.52340000  1.0 0.1091181842
H  H20  1  0.47690000  0.83190000  0.47660000  1.0 0.1091181842
H  H21  1  0.92840000  0.65510000  0.09830000  1.0 0.2708977714
H  H22  1  0.04630000  0.60840000  0.15510000  1.0 0.2708977714
H  H23  1  0.07900000  0.36370000  0.18570000  1.0 0.1396388534
H  H24  1  0.11600000  0.43510000  0.08500000  1.0 0.1396388534
H  H25  1  0.96220000  0.41890000  0.11700000  1.0 0.1318580612
H  H26  1  0.91050000  0.53800000  0.27700000  1.0 0.1196394853
H  H27  1  0.78700000  0.56750000  0.21850000  1.0 0.1396388534
H  H28  1  0.81500000  0.70120000  0.22500000  1.0 0.1396388534
H  H29  1  0.07160000  0.34490000  0.90170000  1.0 0.2708977714
H  H30  1  0.95370000  0.39160000  0.84490000  1.0 0.2708977714
H  H31  1  0.92100000  0.63630000  0.81430000  1.0 0.1396388534
H  H32  1  0.88400000  0.56490000  0.91500000  1.0 0.1396388534
H  H33  1  0.03780000  0.58110000  0.88300000  1.0 0.1318580612
H  H34  1  0.08950000  0.46200000  0.72300000  1.0 0.1196394853
H  H35  1  0.21300000  0.43250000  0.78150000  1.0 0.1396388534
H  H36  1  0.18500000  0.29880000  0.77500000  1.0 0.1396388534
C  C1  1  0.53050000  0.19819000  0.83491000  1.0 0.5569123581
C  C2  1  0.46950000  0.80181000  0.16509000  1.0 0.5569123581
C  C3  1  0.56440000  0.69083000  0.85937000  1.0 0.6255790546
C  C4  1  0.43560000  0.30917000  0.14063000  1.0 0.6255790546
C  C5  1  0.57820000  0.83474000  0.80676000  1.0 -0.0233263195
C  C6  1  0.42180000  0.16526000  0.19324000  1.0 -0.0233263195
C  C7  1  0.53840000  0.94887000  0.84473000  1.0 -0.1022131637
C  C8  1  0.46160000  0.05113000  0.15527000  1.0 -0.1022131637
C  C9  1  0.55720000  0.07865000  0.79425000  1.0 -0.0029060203
C  C10  1  0.44280000  0.92135000  0.20575000  1.0 -0.0029060203
C  C11  1  0.61160000  0.09581000  0.70599000  1.0 -0.1495967478
C  C12  1  0.38840000  0.90419000  0.29401000  1.0 -0.1495967478
C  C13  1  0.65070000  0.98321000  0.66699000  1.0 0.0401130106
C  C14  1  0.34930000  0.01679000  0.33301000  1.0 0.0401130106
C  C15  1  0.63500000  0.85159000  0.71911000  1.0 -0.1616853322
C  C16  1  0.36500000  0.14841000  0.28089000  1.0 -0.1657389696
C  C17  1  0.70620000  0.00108000  0.57222000  1.0 0.0091994517
C  C18  1  0.29380000  0.99892000  0.42778000  1.0 0.0091994517
C  C19  1  0.78160000  0.10550000  0.52160000  1.0 -0.0233263195
C  C20  1  0.21840000  0.89450000  0.47840000  1.0 -0.0233263195
C  C21  1  0.82740000  0.12220000  0.42920000  1.0 0.0091994517
C  C22  1  0.17260000  0.87780000  0.57080000  1.0 0.0038555322
C  C23  1  0.80580000  0.03654000  0.38546000  1.0 -0.0029060203
C  C24  1  0.19420000  0.96346000  0.61454000  1.0 -0.0029060203
C  C25  1  0.74090000  0.94260000  0.43090000  1.0 -0.0689728007
C  C26  1  0.25910000  0.05740000  0.56910000  1.0 -0.0689728007
C  C27  1  0.69300000  0.92770000  0.52280000  1.0 -0.0689728007
C  C28  1  0.30700000  0.07230000  0.47720000  1.0 -0.0689728007
C  C29  1  0.85180000  0.05912000  0.28948000  1.0 0.0454933487
C  C30  1  0.14820000  0.94088000  0.71052000  1.0 0.0454933487
C  C31  1  0.78640000  0.19837000  0.22993000  1.0 -0.1616853322
C  C32  1  0.21360000  0.80163000  0.77007000  1.0 -0.1616853322
C  C33  1  0.82290000  0.22130000  0.13970000  1.0 -0.0275437951
C  C34  1  0.17710000  0.77870000  0.86030000  1.0 -0.0275437951
C  C35  1  0.93250000  0.10642000  0.10828000  1.0 -0.1022131637
C  C36  1  0.06750000  0.89358000  0.89172000  1.0 -0.1022131637
C  C37  1  0.00160000  0.96889000  0.16711000  1.0 -0.0029060203
C  C38  1  0.99840000  0.03111000  0.83289000  1.0 -0.0029060203
C  C39  1  0.95910000  0.94385000  0.25685000  1.0 -0.1657389696
C  C40  1  0.04090000  0.05615000  0.74315000  1.0 -0.1657389696
C  C41  1  0.12800000  0.85008000  0.13262000  1.0 0.5569123581
C  C42  1  0.87200000  0.14992000  0.86738000  1.0 0.5569123581
C  C43  1  0.74300000  0.36783000  0.07577000  1.0 0.6145001009
C  C44  1  0.25700000  0.63217000  0.92423000  1.0 0.6145001009
C  C45  1  0.66810000  0.12030000  0.41750000  1.0 -0.0689728007
C  C46  1  0.33190000  0.87970000  0.58250000  1.0 -0.0689728007
C  C47  1  0.61850000  0.10500000  0.50800000  1.0 -0.0689728007
C  C48  1  0.38150000  0.89500000  0.49200000  1.0 -0.0689728007
C  C49  1  0.84680000  0.90370000  0.54870000  1.0 0.0091994517
C  C50  1  0.15320000  0.09630000  0.45130000  1.0 0.0091994517
C  C51  1  0.89980000  0.92230000  0.45650000  1.0 0.0038555322
C  C52  1  0.10020000  0.07770000  0.54350000  1.0 0.0091994517
C  C53  1  0.03820000  0.43810000  0.13240000  1.0 -0.3001393125
C  C54  1  0.86170000  0.59950000  0.22350000  1.0 -0.3001393125
C  C55  1  0.96180000  0.56190000  0.86760000  1.0 -0.3001393125
C  C56  1  0.13830000  0.40050000  0.77650000  1.0 -0.3001393125
S  S1  1  0.89430000  0.27930000  0.47140000  1.0 0.4813367232
S  S2  1  0.10570000  0.72070000  0.52860000  1.0 0.4962246373
S  S3  1  0.09440000  0.72900000  0.54080000  1.0 0.4876269057
S  S4  1  0.90560000  0.27100000  0.45920000  1.0 0.4813367232
N  N1  1  0.89410000  0.21880000  0.39350000  1.0 -0.2293777399
N  N2  1  0.10590000  0.78120000  0.60650000  1.0 -0.2293777399
N  N3  1  0.81600000  0.18930000  0.55430000  1.0 -0.2293777399
N  N4  1  0.18400000  0.81070000  0.44570000  1.0 -0.2293777399
N  N5  1  0.04360000  0.82810000  0.44490000  1.0 -0.2018590764
N  N6  1  0.95640000  0.17190000  0.55510000  1.0 -0.2018590764
N  N7  1  0.94850000  0.79580000  0.60490000  1.0 -0.28867874
N  N8  1  0.05150000  0.20420000  0.39510000  1.0 -0.28867874
N  N9  1  0.97230000  0.58690000  0.14720000  1.0 -0.0850829974
N  N10  1  0.02770000  0.41310000  0.85280000  1.0 -0.0850829974
O  O1  1  0.50423000  0.67767000  0.93736000  1.0 -0.7231261775
O  O2  1  0.49577000  0.32233000  0.06264000  1.0 -0.7231261775
O  O3  1  0.61470000  0.58718000  0.82389000  1.0 -0.6267939732
O  O4  1  0.38530000  0.41282000  0.17611000  1.0 -0.6267939732
O  O5  1  0.48577000  0.18439000  0.91539000  1.0 -0.6116034433
O  O6  1  0.51423000  0.81561000  0.08461000  1.0 -0.6116034433
O  O7  1  0.56310000  0.30745000  0.78852000  1.0 -0.622312888
O  O8  1  0.43690000  0.69255000  0.21148000  1.0 -0.622312888
O  O9  1  0.66035000  0.47566000  0.10618000  1.0 -0.6561272785
O  O10  1  0.33965000  0.52434000  0.89382000  1.0 -0.6561272785
O  O11  1  0.76160000  0.37430000  0.99471000  1.0 -0.6828693793
O  O12  1  0.23840000  0.62570000  0.00529000  1.0 -0.6828693793
O  O13  1  0.20849000  0.88930000  0.06563000  1.0 -0.622312888
O  O14  1  0.79151000  0.11070000  0.93437000  1.0 -0.6267939732
O  O15  1  0.15571000  0.71439000  0.17232000  1.0 -0.6267939732
O  O16  1  0.84429000  0.28561000  0.82768000  1.0 -0.6267939732
