# DDEC6 charges by PACMAN v1.1 (https://github.com/mtap-research/PACMAN-charge/)
data_YEZKOF_ASR_pacman
_symmetry_space_group_name_H-M   'P 1'
_cell_length_a   13.68220000
_cell_length_b   13.68220000
_cell_length_c   13.68220000
_cell_angle_alpha   102.35300000
_cell_angle_beta   102.35300000
_cell_angle_gamma   102.35300000
_symmetry_Int_Tables_number   1
_chemical_formula_structural   CoMoH20C24(N2O)2
_chemical_formula_sum   'Co3 Mo3 H60 C72 N12 O6'
_cell_volume   2351.85728092
_cell_formula_units_Z   3
loop_
 _symmetry_equiv_pos_site_id
 _symmetry_equiv_pos_as_xyz
  1  'x, y, z'
loop_
 _atom_site_type_symbol
 _atom_site_label
 _atom_site_symmetry_multiplicity
 _atom_site_fract_x
 _atom_site_fract_y
 _atom_site_fract_z
 _atom_site_occupancy
 _atom_site_charge
Co  Co1  1  0.50000000  0.11708000  0.88292000  1.0 0.7867486653
Co  Co2  1  0.11708000  0.88292000  0.50000000  1.0 0.7846577045
Co  Co3  1  0.88292000  0.50000000  0.11708000  1.0 0.7867486653
Mo  Mo1  1  0.79279000  0.20721000  0.00000000  1.0 0.9987386343
Mo  Mo2  1  0.20721000  0.00000000  0.79279000  1.0 0.9987386343
Mo  Mo3  1  0.00000000  0.79279000  0.20721000  1.0 0.9865458485
H  H1  1  0.66340000  0.11840000  0.75170000  1.0 0.0823513197
H  H2  1  0.11840000  0.75170000  0.66340000  1.0 0.0823513197
H  H3  1  0.75170000  0.66340000  0.11840000  1.0 0.0823513197
H  H4  1  0.88160000  0.33660000  0.24830000  1.0 0.0823513197
H  H5  1  0.24830000  0.88160000  0.33660000  1.0 0.0823513197
H  H6  1  0.33660000  0.24830000  0.88160000  1.0 0.0823513197
H  H7  1  0.68250000  0.13440000  0.59270000  1.0 0.1213086945
H  H8  1  0.13440000  0.59270000  0.68250000  1.0 0.1213086945
H  H9  1  0.59270000  0.68250000  0.13440000  1.0 0.1213086945
H  H10  1  0.86560000  0.31750000  0.40730000  1.0 0.1213086945
H  H11  1  0.40730000  0.86560000  0.31750000  1.0 0.1213086945
H  H12  1  0.31750000  0.40730000  0.86560000  1.0 0.1213086945
H  H13  1  0.38350000  0.13960000  0.51300000  1.0 0.1095399064
H  H14  1  0.13960000  0.51300000  0.38350000  1.0 0.1095399064
H  H15  1  0.51300000  0.38350000  0.13960000  1.0 0.1095399064
H  H16  1  0.86040000  0.61650000  0.48700000  1.0 0.1095399064
H  H17  1  0.48700000  0.86040000  0.61650000  1.0 0.1095399064
H  H18  1  0.61650000  0.48700000  0.86040000  1.0 0.1095399064
H  H19  1  0.37190000  0.12070000  0.67280000  1.0 0.092037822
H  H20  1  0.12070000  0.67280000  0.37190000  1.0 0.092037822
H  H21  1  0.67280000  0.37190000  0.12070000  1.0 0.092037822
H  H22  1  0.87930000  0.62810000  0.32720000  1.0 0.092037822
H  H23  1  0.32720000  0.87930000  0.62810000  1.0 0.092037822
H  H24  1  0.62810000  0.32720000  0.87930000  1.0 0.092037822
H  H25  1  0.61080000  0.14250000  0.41810000  1.0 0.1095399064
H  H26  1  0.14250000  0.41810000  0.61080000  1.0 0.1095399064
H  H27  1  0.41810000  0.61080000  0.14250000  1.0 0.1095399064
H  H28  1  0.85750000  0.38920000  0.58190000  1.0 0.1095399064
H  H29  1  0.58190000  0.85750000  0.38920000  1.0 0.1095399064
H  H30  1  0.38920000  0.58190000  0.85750000  1.0 0.1095399064
H  H31  1  0.40740000  0.14880000  0.36380000  1.0 0.1095399064
H  H32  1  0.14880000  0.36380000  0.40740000  1.0 0.1095399064
H  H33  1  0.36380000  0.40740000  0.14880000  1.0 0.1095399064
H  H34  1  0.85120000  0.59260000  0.63620000  1.0 0.1095399064
H  H35  1  0.63620000  0.85120000  0.59260000  1.0 0.1095399064
H  H36  1  0.59260000  0.63620000  0.85120000  1.0 0.1095399064
H  H37  1  0.34430000  0.17650000  0.19370000  1.0 0.1213086945
H  H38  1  0.17650000  0.19370000  0.34430000  1.0 0.1213086945
H  H39  1  0.19370000  0.34430000  0.17650000  1.0 0.1213086945
H  H40  1  0.82350000  0.65570000  0.80630000  1.0 0.1213086945
H  H41  1  0.80630000  0.82350000  0.65570000  1.0 0.1213086945
H  H42  1  0.65570000  0.80630000  0.82350000  1.0 0.1213086945
H  H43  1  0.35570000  0.16480000  0.02630000  1.0 0.0823513197
H  H44  1  0.16480000  0.02630000  0.35570000  1.0 0.0823513197
H  H45  1  0.02630000  0.35570000  0.16480000  1.0 0.0823513197
H  H46  1  0.83520000  0.64430000  0.97370000  1.0 0.0823513197
H  H47  1  0.97370000  0.83520000  0.64430000  1.0 0.0823513197
H  H48  1  0.64430000  0.97370000  0.83520000  1.0 0.0823513197
H  H49  1  0.62170000  0.09900000  0.08920000  1.0 0.0823513197
H  H50  1  0.09900000  0.08920000  0.62170000  1.0 0.0823513197
H  H51  1  0.08920000  0.62170000  0.09900000  1.0 0.0823513197
H  H52  1  0.90100000  0.37830000  0.91080000  1.0 0.0823513197
H  H53  1  0.91080000  0.90100000  0.37830000  1.0 0.0823513197
H  H54  1  0.37830000  0.91080000  0.90100000  1.0 0.0823513197
H  H55  1  0.61960000  0.11040000  0.25810000  1.0 0.1213086945
H  H56  1  0.11040000  0.25810000  0.61960000  1.0 0.1213086945
H  H57  1  0.25810000  0.61960000  0.11040000  1.0 0.1213086945
H  H58  1  0.88960000  0.38040000  0.74190000  1.0 0.1213086945
H  H59  1  0.74190000  0.88960000  0.38040000  1.0 0.1213086945
H  H60  1  0.38040000  0.74190000  0.88960000  1.0 0.1213086945
C  C1  1  0.60563000  0.12147000  0.70218000  1.0 0.0615509614
C  C2  1  0.12147000  0.70218000  0.60563000  1.0 0.0615509614
C  C3  1  0.70218000  0.60563000  0.12147000  1.0 0.0615509614
C  C4  1  0.87853000  0.39437000  0.29782000  1.0 0.0615509614
C  C5  1  0.29782000  0.87853000  0.39437000  1.0 0.0615509614
C  C6  1  0.39437000  0.29782000  0.87853000  1.0 0.0615509614
C  C7  1  0.61786000  0.13124000  0.60710000  1.0 -0.2229329904
C  C8  1  0.13124000  0.60710000  0.61786000  1.0 -0.2229329904
C  C9  1  0.60710000  0.61786000  0.13124000  1.0 -0.2229329904
C  C10  1  0.86876000  0.38214000  0.39290000  1.0 -0.2229329904
C  C11  1  0.39290000  0.86876000  0.38214000  1.0 -0.2229329904
C  C12  1  0.38214000  0.39290000  0.86876000  1.0 -0.2229329904
C  C13  1  0.53388000  0.13631000  0.53247000  1.0 0.1459576663
C  C14  1  0.13631000  0.53247000  0.53388000  1.0 0.1459576663
C  C15  1  0.53247000  0.53388000  0.13631000  1.0 0.1459576663
C  C16  1  0.86369000  0.46612000  0.46753000  1.0 0.1459576663
C  C17  1  0.46753000  0.86369000  0.46612000  1.0 0.1459576663
C  C18  1  0.46612000  0.46753000  0.86369000  1.0 0.1459576663
C  C19  1  0.44163000  0.13391000  0.56016000  1.0 -0.2098805431
C  C20  1  0.13391000  0.56016000  0.44163000  1.0 -0.2098805431
C  C21  1  0.56016000  0.44163000  0.13391000  1.0 -0.2098805431
C  C22  1  0.86609000  0.55837000  0.43984000  1.0 -0.2098805431
C  C23  1  0.43984000  0.86609000  0.55837000  1.0 -0.2098805431
C  C24  1  0.55837000  0.43984000  0.86609000  1.0 -0.2098805431
C  C25  1  0.43536000  0.12323000  0.65619000  1.0 0.0823513197
C  C26  1  0.12323000  0.65619000  0.43536000  1.0 0.0823513197
C  C27  1  0.65619000  0.43536000  0.12323000  1.0 0.0823513197
C  C28  1  0.87677000  0.56464000  0.34381000  1.0 0.0823513197
C  C29  1  0.34381000  0.87677000  0.56464000  1.0 0.0823513197
C  C30  1  0.56464000  0.34381000  0.87677000  1.0 0.0823513197
C  C31  1  0.54535000  0.14140000  0.42945000  1.0 -0.1594140938
C  C32  1  0.14140000  0.42945000  0.54535000  1.0 -0.1594140938
C  C33  1  0.42945000  0.54535000  0.14140000  1.0 -0.1594140938
C  C34  1  0.85860000  0.45465000  0.57055000  1.0 -0.1594140938
C  C35  1  0.57055000  0.85860000  0.45465000  1.0 -0.1594140938
C  C36  1  0.45465000  0.57055000  0.85860000  1.0 -0.1594140938
C  C37  1  0.47140000  0.14470000  0.35100000  1.0 -0.1594140938
C  C38  1  0.14470000  0.35100000  0.47140000  1.0 -0.1594140938
C  C39  1  0.35100000  0.47140000  0.14470000  1.0 -0.1594140938
C  C40  1  0.85530000  0.52860000  0.64900000  1.0 -0.1594140938
C  C41  1  0.64900000  0.85530000  0.52860000  1.0 -0.1594140938
C  C42  1  0.52860000  0.64900000  0.85530000  1.0 -0.1594140938
C  C43  1  0.48102000  0.14250000  0.24548000  1.0 0.1428620767
C  C44  1  0.14250000  0.24548000  0.48102000  1.0 0.1428620767
C  C45  1  0.24548000  0.48102000  0.14250000  1.0 0.1428620767
C  C46  1  0.85750000  0.51898000  0.75452000  1.0 0.1428620767
C  C47  1  0.75452000  0.85750000  0.51898000  1.0 0.1428620767
C  C48  1  0.51898000  0.75452000  0.85750000  1.0 0.1428620767
C  C49  1  0.40190000  0.16000000  0.17390000  1.0 -0.2229329904
C  C50  1  0.16000000  0.17390000  0.40190000  1.0 -0.2229329904
C  C51  1  0.17390000  0.40190000  0.16000000  1.0 -0.2229329904
C  C52  1  0.84000000  0.59810000  0.82610000  1.0 -0.2229329904
C  C53  1  0.82610000  0.84000000  0.59810000  1.0 -0.2229329904
C  C54  1  0.59810000  0.82610000  0.84000000  1.0 -0.2229329904
C  C55  1  0.40953000  0.15286000  0.07381000  1.0 0.0615509614
C  C56  1  0.15286000  0.07381000  0.40953000  1.0 0.0615509614
C  C57  1  0.07381000  0.40953000  0.15286000  1.0 0.0615509614
C  C58  1  0.84714000  0.59047000  0.92619000  1.0 0.0615509614
C  C59  1  0.92619000  0.84714000  0.59047000  1.0 0.0615509614
C  C60  1  0.59047000  0.92619000  0.84714000  1.0 0.0615509614
C  C61  1  0.56469000  0.11480000  0.11052000  1.0 0.0708447249
C  C62  1  0.11480000  0.11052000  0.56469000  1.0 0.0708447249
C  C63  1  0.11052000  0.56469000  0.11480000  1.0 0.0708447249
C  C64  1  0.88520000  0.43531000  0.88948000  1.0 0.0708447249
C  C65  1  0.88948000  0.88520000  0.43531000  1.0 0.0708447249
C  C66  1  0.43531000  0.88948000  0.88520000  1.0 0.0708447249
C  C67  1  0.56380000  0.12090000  0.21190000  1.0 -0.2098805431
C  C68  1  0.12090000  0.21190000  0.56380000  1.0 -0.2098805431
C  C69  1  0.21190000  0.56380000  0.12090000  1.0 -0.2098805431
C  C70  1  0.87910000  0.43620000  0.78810000  1.0 -0.2098805431
C  C71  1  0.78810000  0.87910000  0.43620000  1.0 -0.2098805431
C  C72  1  0.43620000  0.78810000  0.87910000  1.0 -0.2098805431
N  N1  1  0.48898000  0.13015000  0.04065000  1.0 -0.2305904898
N  N2  1  0.13015000  0.04065000  0.48898000  1.0 -0.2305904898
N  N3  1  0.04065000  0.48898000  0.13015000  1.0 -0.2305904898
N  N4  1  0.86985000  0.51102000  0.95935000  1.0 -0.2305904898
N  N5  1  0.95935000  0.86985000  0.51102000  1.0 -0.2305904898
N  N6  1  0.51102000  0.95935000  0.86985000  1.0 -0.2305904898
N  N7  1  0.51620000  0.11621000  0.72775000  1.0 -0.2417835268
N  N8  1  0.11621000  0.72775000  0.51620000  1.0 -0.2417835268
N  N9  1  0.72775000  0.51620000  0.11621000  1.0 -0.2417835268
N  N10  1  0.88379000  0.48380000  0.27225000  1.0 -0.2417835268
N  N11  1  0.27225000  0.88379000  0.48380000  1.0 -0.2417835268
N  N12  1  0.48380000  0.27225000  0.88379000  1.0 -0.2417835268
O  O1  1  0.65775000  0.16875000  0.93866000  1.0 -0.8302890482
O  O2  1  0.16875000  0.93866000  0.65775000  1.0 -0.8302890482
O  O3  1  0.93866000  0.65775000  0.16875000  1.0 -0.8302890482
O  O4  1  0.83125000  0.34225000  0.06134000  1.0 -0.8302890482
O  O5  1  0.06134000  0.83125000  0.34225000  1.0 -0.8302890482
O  O6  1  0.34225000  0.06134000  0.83125000  1.0 -0.8302890482
