# DDEC6 charges by PACMAN v1.1 (https://github.com/mtap-research/PACMAN-charge/)
data_YICDAR_ASR_pacman
_symmetry_space_group_name_H-M   'P 1'
_cell_length_a   16.09940000
_cell_length_b   16.09940000
_cell_length_c   16.09940000
_cell_angle_alpha   116.52500000
_cell_angle_beta   116.52500000
_cell_angle_gamma   116.52500000
_symmetry_Int_Tables_number   1
_chemical_formula_structural   MgHC5(NO2)2
_chemical_formula_sum   'Mg6 H6 C30 N12 O24'
_cell_volume   1972.91044442
_cell_formula_units_Z   6
loop_
 _symmetry_equiv_pos_site_id
 _symmetry_equiv_pos_as_xyz
  1  'x, y, z'
loop_
 _atom_site_type_symbol
 _atom_site_label
 _atom_site_symmetry_multiplicity
 _atom_site_fract_x
 _atom_site_fract_y
 _atom_site_fract_z
 _atom_site_occupancy
 _atom_site_charge
Mg  Mg1  1  0.09747000  0.19586000  0.96287000  1.0 1.3446136393
Mg  Mg2  1  0.19586000  0.96287000  0.09747000  1.0 1.3446136393
Mg  Mg3  1  0.96287000  0.09747000  0.19586000  1.0 1.3446136393
Mg  Mg4  1  0.90253000  0.80414000  0.03713000  1.0 1.3446136393
Mg  Mg5  1  0.80414000  0.03713000  0.90253000  1.0 1.3458394684
Mg  Mg6  1  0.03713000  0.90253000  0.80414000  1.0 1.3446136393
H  H1  1  0.22480000  0.37050000  0.31940000  1.0 0.1006035559
H  H2  1  0.37050000  0.31940000  0.22480000  1.0 0.1006035559
H  H3  1  0.31940000  0.22480000  0.37050000  1.0 0.1006035559
H  H4  1  0.77520000  0.62950000  0.68060000  1.0 0.1006035559
H  H5  1  0.62950000  0.68060000  0.77520000  1.0 0.1006035559
H  H6  1  0.68060000  0.77520000  0.62950000  1.0 0.1006035559
C  C1  1  0.97053000  0.28826000  0.95421000  1.0 0.6530348935
C  C2  1  0.28826000  0.95421000  0.97053000  1.0 0.6530348935
C  C3  1  0.95421000  0.97053000  0.28826000  1.0 0.6530348935
C  C4  1  0.02947000  0.71174000  0.04579000  1.0 0.6557116784
C  C5  1  0.71174000  0.04579000  0.02947000  1.0 0.6557116784
C  C6  1  0.04579000  0.02947000  0.71174000  1.0 0.6530348935
C  C7  1  0.98294000  0.39488000  0.97558000  1.0 -0.1893376904
C  C8  1  0.39488000  0.97558000  0.98294000  1.0 -0.1893376904
C  C9  1  0.97558000  0.98294000  0.39488000  1.0 -0.1893376904
C  C10  1  0.01706000  0.60512000  0.02442000  1.0 -0.1893376904
C  C11  1  0.60512000  0.02442000  0.01706000  1.0 -0.1893376904
C  C12  1  0.02442000  0.01706000  0.60512000  1.0 -0.1893376904
C  C13  1  0.06559000  0.47967000  0.97794000  1.0 0.1497122872
C  C14  1  0.47967000  0.97794000  0.06559000  1.0 0.1497122872
C  C15  1  0.97794000  0.06559000  0.47967000  1.0 0.1497122872
C  C16  1  0.93441000  0.52033000  0.02206000  1.0 0.1497122872
C  C17  1  0.52033000  0.02206000  0.93441000  1.0 0.1497122872
C  C18  1  0.02206000  0.93441000  0.52033000  1.0 0.1497122872
C  C19  1  0.91631000  0.41599000  0.99890000  1.0 0.1134040184
C  C20  1  0.41599000  0.99890000  0.91631000  1.0 0.1134040184
C  C21  1  0.99890000  0.91631000  0.41599000  1.0 0.1162657368
C  C22  1  0.08369000  0.58401000  0.00110000  1.0 0.1162657368
C  C23  1  0.58401000  0.00110000  0.08369000  1.0 0.1162657368
C  C24  1  0.00110000  0.08369000  0.58401000  1.0 0.1134040184
C  C25  1  0.14440000  0.29386000  0.21154000  1.0 0.5401464777
C  C26  1  0.29386000  0.21154000  0.14440000  1.0 0.5401464777
C  C27  1  0.21154000  0.14440000  0.29386000  1.0 0.5401464777
C  C28  1  0.85560000  0.70614000  0.78846000  1.0 0.5401464777
C  C29  1  0.70614000  0.78846000  0.85560000  1.0 0.5401464777
C  C30  1  0.78846000  0.85560000  0.70614000  1.0 0.5401464777
N  N1  1  0.82510000  0.33460000  0.99510000  1.0 -0.0262647605
N  N2  1  0.33460000  0.99510000  0.82510000  1.0 -0.0231469966
N  N3  1  0.99510000  0.82510000  0.33460000  1.0 -0.0262647605
N  N4  1  0.17490000  0.66540000  0.00490000  1.0 -0.0262647605
N  N5  1  0.66540000  0.00490000  0.17490000  1.0 -0.0262647605
N  N6  1  0.00490000  0.17490000  0.66540000  1.0 -0.0231469966
N  N7  1  0.14220000  0.47900000  0.96980000  1.0 -0.1976288555
N  N8  1  0.47900000  0.96980000  0.14220000  1.0 -0.1976288555
N  N9  1  0.96980000  0.14220000  0.47900000  1.0 -0.1976288555
N  N10  1  0.85780000  0.52100000  0.03020000  1.0 -0.1976288555
N  N11  1  0.52100000  0.03020000  0.85780000  1.0 -0.1976288555
N  N12  1  0.03020000  0.85780000  0.52100000  1.0 -0.1976288555
O  O1  1  0.03134000  0.27347000  0.93219000  1.0 -0.6237081014
O  O2  1  0.27347000  0.93219000  0.03134000  1.0 -0.6237081014
O  O3  1  0.93219000  0.03134000  0.27347000  1.0 -0.6237081014
O  O4  1  0.96866000  0.72653000  0.06781000  1.0 -0.6237081014
O  O5  1  0.72653000  0.06781000  0.96866000  1.0 -0.6237081014
O  O6  1  0.06781000  0.96866000  0.72653000  1.0 -0.6237081014
O  O7  1  0.90145000  0.22095000  0.96190000  1.0 -0.6476879142
O  O8  1  0.22095000  0.96190000  0.90145000  1.0 -0.6476879142
O  O9  1  0.96190000  0.90145000  0.22095000  1.0 -0.6476879142
O  O10  1  0.09855000  0.77905000  0.03810000  1.0 -0.6476879142
O  O11  1  0.77905000  0.03810000  0.09855000  1.0 -0.6476879142
O  O12  1  0.03810000  0.09855000  0.77905000  1.0 -0.6476879142
O  O13  1  0.18243000  0.31799000  0.16558000  1.0 -0.5727663162
O  O14  1  0.31799000  0.16558000  0.18243000  1.0 -0.5727663162
O  O15  1  0.16558000  0.18243000  0.31799000  1.0 -0.5727663162
O  O16  1  0.81757000  0.68201000  0.83442000  1.0 -0.5727663162
O  O17  1  0.68201000  0.83442000  0.81757000  1.0 -0.5727663162
O  O18  1  0.83442000  0.81757000  0.68201000  1.0 -0.5727663162
O  O19  1  0.00820000  0.17626000  0.12724000  1.0 -0.6476879142
O  O20  1  0.17626000  0.12724000  0.00820000  1.0 -0.6476879142
O  O21  1  0.12724000  0.00820000  0.17626000  1.0 -0.6476879142
O  O22  1  0.99180000  0.82374000  0.87276000  1.0 -0.6476879142
O  O23  1  0.82374000  0.87276000  0.99180000  1.0 -0.6476879142
O  O24  1  0.87276000  0.99180000  0.82374000  1.0 -0.6476879142
