# DDEC6 charges by PACMAN v1.1 (https://github.com/mtap-research/PACMAN-charge/)
data_YIDSOT_FSR_pacman
_symmetry_space_group_name_H-M   'P 1'
_cell_length_a   9.02880000
_cell_length_b   9.02880000
_cell_length_c   18.86800000
_cell_angle_alpha   82.18860000
_cell_angle_beta   97.81140000
_cell_angle_gamma   110.86900000
_symmetry_Int_Tables_number   1
_chemical_formula_structural   V2P2H8C3O10
_chemical_formula_sum   'V8 P8 H32 C12 O40'
_cell_volume   1417.49083939
_cell_formula_units_Z   4
loop_
 _symmetry_equiv_pos_site_id
 _symmetry_equiv_pos_as_xyz
  1  'x, y, z'
loop_
 _atom_site_type_symbol
 _atom_site_label
 _atom_site_symmetry_multiplicity
 _atom_site_fract_x
 _atom_site_fract_y
 _atom_site_fract_z
 _atom_site_occupancy
 _atom_site_charge
V  V1  1  0.71960000  0.03820000  0.41060000  1.0 1.8903469729
V  V2  1  0.03820000  0.71960000  0.08940000  1.0 1.8903469729
V  V3  1  0.28040000  0.96180000  0.58940000  1.0 1.8903469729
V  V4  1  0.96180000  0.28040000  0.91060000  1.0 1.8903469729
V  V5  1  0.17180000  0.70840000  0.28380000  1.0 1.6328361717
V  V6  1  0.70840000  0.17180000  0.21620000  1.0 1.6328361717
V  V7  1  0.82820000  0.29160000  0.71620000  1.0 1.6328361717
V  V8  1  0.29160000  0.82820000  0.78380000  1.0 1.6350881147
P  P1  1  0.33400000  0.90680000  0.42580000  1.0 1.3965075004
P  P2  1  0.90680000  0.33400000  0.07420000  1.0 1.3965075004
P  P3  1  0.66600000  0.09320000  0.57420000  1.0 1.3965075004
P  P4  1  0.09320000  0.66600000  0.92580000  1.0 1.3965075004
P  P5  1  0.00190000  0.32310000  0.33000000  1.0 1.3198519038
P  P6  1  0.32310000  0.00190000  0.17000000  1.0 1.3198519038
P  P7  1  0.99810000  0.67690000  0.67000000  1.0 1.3198519038
P  P8  1  0.67690000  0.99810000  0.83000000  1.0 1.3198519038
H  H1  1  0.66850000  0.00270000  0.27570000  1.0 0.376419692
H  H2  1  0.00270000  0.66850000  0.22430000  1.0 0.376419692
H  H3  1  0.33150000  0.99730000  0.72430000  1.0 0.376419692
H  H4  1  0.99730000  0.33150000  0.77570000  1.0 0.376419692
H  H5  1  0.62230000  0.14870000  0.28760000  1.0 0.3601656543
H  H6  1  0.14870000  0.62230000  0.21240000  1.0 0.3601656543
H  H7  1  0.37770000  0.85130000  0.71240000  1.0 0.3601656543
H  H8  1  0.85130000  0.37770000  0.78760000  1.0 0.3601656543
H  H9  1  0.40300000  0.17940000  0.42680000  1.0 0.1392300117
H  H10  1  0.17940000  0.40300000  0.07320000  1.0 0.1392300117
H  H11  1  0.59700000  0.82060000  0.57320000  1.0 0.1392300117
H  H12  1  0.82060000  0.59700000  0.92680000  1.0 0.1392300117
H  H13  1  0.39550000  0.13750000  0.34810000  1.0 0.1332589971
H  H14  1  0.13750000  0.39550000  0.15190000  1.0 0.1332589971
H  H15  1  0.60450000  0.86250000  0.65190000  1.0 0.1332589971
H  H16  1  0.86250000  0.60450000  0.84810000  1.0 0.1332589971
H  H17  1  0.12630000  0.12490000  0.32750000  1.0 0.1064258503
H  H18  1  0.12490000  0.12630000  0.17250000  1.0 0.1064258503
H  H19  1  0.87370000  0.87510000  0.67250000  1.0 0.1064258503
H  H20  1  0.87510000  0.87370000  0.82750000  1.0 0.1064258503
H  H21  1  0.13370000  0.16690000  0.40620000  1.0 0.0968364614
H  H22  1  0.16690000  0.13370000  0.09380000  1.0 0.0968364614
H  H23  1  0.86630000  0.83310000  0.59380000  1.0 0.0968364614
H  H24  1  0.83310000  0.86630000  0.90620000  1.0 0.0968364614
H  H25  1  0.27230000  0.40170000  0.35550000  1.0 0.1621194171
H  H26  1  0.40170000  0.27230000  0.14450000  1.0 0.1621194171
H  H27  1  0.72770000  0.59830000  0.64450000  1.0 0.1621194171
H  H28  1  0.59830000  0.72770000  0.85550000  1.0 0.1621194171
H  H29  1  0.24210000  0.21830000  0.36370000  1.0 0.0267237673
H  H30  1  0.21830000  0.24210000  0.13630000  1.0 0.0267237673
H  H31  1  0.75790000  0.78170000  0.63630000  1.0 0.0267237673
H  H32  1  0.78170000  0.75790000  0.86370000  1.0 0.0267237673
C  C1  1  0.34310000  0.10790000  0.39150000  1.0 -0.4731066985
C  C2  1  0.10790000  0.34310000  0.10850000  1.0 -0.4731066985
C  C3  1  0.65690000  0.89210000  0.60850000  1.0 -0.4731066985
C  C4  1  0.89210000  0.65690000  0.89150000  1.0 -0.4731066985
C  C5  1  0.17820000  0.12080000  0.37530000  1.0 -0.0164188569
C  C6  1  0.12080000  0.17820000  0.12470000  1.0 -0.0164188569
C  C7  1  0.82180000  0.87920000  0.62470000  1.0 -0.0164188569
C  C8  1  0.87920000  0.82180000  0.87530000  1.0 -0.0164188569
C  C9  1  0.19240000  0.29780000  0.35310000  1.0 -0.3873593373
C  C10  1  0.29780000  0.19240000  0.14690000  1.0 -0.3873593373
C  C11  1  0.80760000  0.70220000  0.64690000  1.0 -0.3873593373
C  C12  1  0.70220000  0.80760000  0.85310000  1.0 -0.3873593373
O  O1  1  0.81050000  0.91430000  0.42500000  1.0 -0.619736479
O  O2  1  0.91430000  0.81050000  0.07500000  1.0 -0.619736479
O  O3  1  0.18950000  0.08570000  0.57500000  1.0 -0.619736479
O  O4  1  0.08570000  0.18950000  0.92500000  1.0 -0.619736479
O  O5  1  0.49780000  0.89360000  0.42430000  1.0 -0.8088733418
O  O6  1  0.89360000  0.49780000  0.07570000  1.0 -0.8088733418
O  O7  1  0.50220000  0.10640000  0.57570000  1.0 -0.8088733418
O  O8  1  0.10640000  0.50220000  0.92430000  1.0 -0.8088733418
O  O9  1  0.28060000  0.87320000  0.50100000  1.0 -0.7934704808
O  O10  1  0.87320000  0.28060000  0.99900000  1.0 -0.7934704808
O  O11  1  0.71940000  0.12680000  0.49900000  1.0 -0.7934704808
O  O12  1  0.12680000  0.71940000  0.00100000  1.0 -0.7934704808
O  O13  1  0.89760000  0.23920000  0.39160000  1.0 -0.7934704808
O  O14  1  0.23920000  0.89760000  0.10840000  1.0 -0.7934704808
O  O15  1  0.10240000  0.76080000  0.60840000  1.0 -0.7934704808
O  O16  1  0.76080000  0.10240000  0.89160000  1.0 -0.7934704808
O  O17  1  0.33120000  0.66666667  0.28250000  1.0 -0.5888268215
O  O18  1  0.66666667  0.33120000  0.21750000  1.0 -0.5888268215
O  O19  1  0.66880000  0.33340000  0.71750000  1.0 -0.5888268215
O  O20  1  0.33340000  0.66880000  0.78250000  1.0 -0.5888268215
O  O21  1  0.02890000  0.49930000  0.32630000  1.0 -0.7314344508
O  O22  1  0.49930000  0.02890000  0.17370000  1.0 -0.7314344508
O  O23  1  0.97110000  0.50070000  0.67370000  1.0 -0.7314344508
O  O24  1  0.50070000  0.97110000  0.82630000  1.0 -0.7314344508
O  O25  1  0.93250000  0.25190000  0.25930000  1.0 -0.7734142852
O  O26  1  0.25190000  0.93250000  0.24070000  1.0 -0.7734142852
O  O27  1  0.06750000  0.74810000  0.74070000  1.0 -0.7734142852
O  O28  1  0.74810000  0.06750000  0.75930000  1.0 -0.7734142852
O  O29  1  0.20680000  0.78620000  0.38050000  1.0 -0.7101404381
O  O30  1  0.78620000  0.20680000  0.11950000  1.0 -0.7101404381
O  O31  1  0.79320000  0.21380000  0.61950000  1.0 -0.7101404381
O  O32  1  0.21380000  0.79320000  0.88050000  1.0 -0.7101404381
O  O33  1  0.64120000  0.05460000  0.31050000  1.0 -0.8248827172
O  O34  1  0.05460000  0.64120000  0.18950000  1.0 -0.8248827172
O  O35  1  0.35880000  0.94540000  0.68950000  1.0 -0.8248827172
O  O36  1  0.94540000  0.35880000  0.81050000  1.0 -0.8248827172
O  O37  1  0.93610000  0.76370000  0.29340000  1.0 -0.1204404583
O  O38  1  0.76370000  0.93610000  0.20660000  1.0 -0.1130134103
O  O39  1  0.06390000  0.23630000  0.70660000  1.0 -0.1204404583
O  O40  1  0.23630000  0.06390000  0.79340000  1.0 -0.1267096636
