# DDEC6 charges by PACMAN v1.1 (https://github.com/mtap-research/PACMAN-charge/)
data_YIGKUX_ASR_pacman
_symmetry_space_group_name_H-M   'P 1'
_cell_length_a   10.95330000
_cell_length_b   13.31260000
_cell_length_c   13.01150000
_cell_angle_alpha   90.00000000
_cell_angle_beta   108.93200000
_cell_angle_gamma   90.00000000
_symmetry_Int_Tables_number   1
_chemical_formula_structural   Cu(C9O2)2
_chemical_formula_sum   'Cu4 C72 O16'
_cell_volume   1794.66102958
_cell_formula_units_Z   4
loop_
 _symmetry_equiv_pos_site_id
 _symmetry_equiv_pos_as_xyz
  1  'x, y, z'
loop_
 _atom_site_type_symbol
 _atom_site_label
 _atom_site_symmetry_multiplicity
 _atom_site_fract_x
 _atom_site_fract_y
 _atom_site_fract_z
 _atom_site_occupancy
 _atom_site_charge
Cu  Cu1  1  0.34540000  0.49820000  0.20557000  1.0 0.770262891
Cu  Cu2  1  0.59470000  0.50830000  0.27898000  1.0 0.7306547105
Cu  Cu3  1  0.65460000  0.99820000  0.79443000  1.0 0.770262891
Cu  Cu4  1  0.40530000  0.00830000  0.72102000  1.0 0.7306547105
C  C1  1  0.54150000  0.07220000  0.58000000  1.0 0.4258148163
C  C2  1  0.48130000  0.32440000  0.31600000  1.0 0.441516453
C  C3  1  0.51430000  0.94060000  0.93630000  1.0 0.4218831598
C  C4  1  0.46160000  0.68390000  0.17550000  1.0 0.4660230219
C  C5  1  0.54900000  0.06970000  0.46220000  1.0 -0.0076929074
C  C6  1  0.58400000  0.17790000  0.43340000  1.0 -0.0193611081
C  C7  1  0.46100000  0.24390000  0.39500000  1.0 -0.0789935575
C  C8  1  0.36700000  0.16180000  0.33200000  1.0 -0.1168827382
C  C9  1  0.42500000  0.05590000  0.36400000  1.0 -0.0298545495
C  C10  1  0.65500000  0.99500000  0.45700000  1.0 0.1685586139
C  C11  1  0.64400000  0.17000000  0.34000000  1.0 0.1181203787
C  C12  1  0.68300000  0.22600000  0.53500000  1.0 0.0090599009
C  C13  1  0.50100000  0.93420000  0.05340000  1.0 -0.0500554098
C  C14  1  0.54900000  0.82940000  0.10560000  1.0 -0.0029786531
C  C15  1  0.43300000  0.75570000  0.07750000  1.0 -0.0854969606
C  C16  1  0.33200000  0.83000000  0.09200000  1.0 -0.0789935575
C  C17  1  0.36400000  0.93800000  0.06500000  1.0 -0.039770199
C  C18  1  0.58700000  0.01710000  0.12600000  1.0 0.2010241388
C  C19  1  0.61200000  0.84100000  0.22910000  1.0 -0.0193611081
C  C20  1  0.65500000  0.78900000  0.06200000  1.0 0.1181203787
C  C21  1  0.50500000  0.21050000  0.31470000  1.0 0.0187842832
C  C22  1  0.45700000  0.17240000  0.40680000  1.0 -0.0076929074
C  C23  1  0.57200000  0.15980000  0.51390000  1.0 -0.0713844142
C  C24  1  0.68100000  0.13300000  0.46600000  1.0 -0.0500554098
C  C25  1  0.64700000  0.17600000  0.34900000  1.0 0.1181203787
C  C26  1  0.42700000  0.16300000  0.20500000  1.0 0.2277684896
C  C27  1  0.35100000  0.23900000  0.42300000  1.0 0.0090599009
C  C28  1  0.38200000  0.07200000  0.37400000  1.0 -0.1168827382
C  C29  1  0.44500000  0.79990000  0.16900000  1.0 -0.0713844142
C  C30  1  0.40900000  0.83140000  0.04500000  1.0 0.0187842832
C  C31  1  0.54200000  0.86200000  0.02900000  1.0 -0.0713844142
C  C32  1  0.64300000  0.87800000  0.14300000  1.0 -0.1343580917
C  C33  1  0.57600000  0.85400000  0.22900000  1.0 0.0880762428
C  C34  1  0.33900000  0.83400000  0.21400000  1.0 0.1935945391
C  C35  1  0.35500000  0.73800000  0.97400000  1.0 0.0316874399
C  C36  1  0.32300000  0.92700000  0.02500000  1.0 -0.0500554098
C  C37  1  0.45850000  0.57220000  0.42000000  1.0 0.4258148163
C  C38  1  0.51870000  0.82440000  0.68400000  1.0 0.441516453
C  C39  1  0.48570000  0.44060000  0.06370000  1.0 0.4218831598
C  C40  1  0.53840000  0.18390000  0.82450000  1.0 0.4660230219
C  C41  1  0.45100000  0.56970000  0.53780000  1.0 -0.0076929074
C  C42  1  0.41600000  0.67790000  0.56660000  1.0 -0.0193611081
C  C43  1  0.53900000  0.74390000  0.60500000  1.0 -0.0789935575
C  C44  1  0.63300000  0.66180000  0.66800000  1.0 -0.1168827382
C  C45  1  0.57500000  0.55590000  0.63600000  1.0 -0.0298545495
C  C46  1  0.34500000  0.49500000  0.54300000  1.0 0.1685586139
C  C47  1  0.35600000  0.67000000  0.66000000  1.0 0.1181203787
C  C48  1  0.31700000  0.72600000  0.46500000  1.0 0.0090599009
C  C49  1  0.49900000  0.43420000  0.94660000  1.0 -0.0500554098
C  C50  1  0.45100000  0.32940000  0.89440000  1.0 -0.0029786531
C  C51  1  0.56700000  0.25570000  0.92250000  1.0 -0.0854969606
C  C52  1  0.66800000  0.33000000  0.90800000  1.0 -0.0789935575
C  C53  1  0.63600000  0.43800000  0.93500000  1.0 -0.039770199
C  C54  1  0.41300000  0.51710000  0.87400000  1.0 0.2010241388
C  C55  1  0.38800000  0.34100000  0.77090000  1.0 -0.0193611081
C  C56  1  0.34500000  0.28900000  0.93800000  1.0 0.1181203787
C  C57  1  0.49500000  0.71050000  0.68530000  1.0 0.0187842832
C  C58  1  0.54300000  0.67240000  0.59320000  1.0 -0.0076929074
C  C59  1  0.42800000  0.65980000  0.48610000  1.0 -0.0713844142
C  C60  1  0.31900000  0.63300000  0.53400000  1.0 -0.0500554098
C  C61  1  0.35300000  0.67600000  0.65100000  1.0 0.1181203787
C  C62  1  0.57300000  0.66300000  0.79500000  1.0 0.2277684896
C  C63  1  0.64900000  0.73900000  0.57700000  1.0 0.0090599009
C  C64  1  0.61800000  0.57200000  0.62600000  1.0 -0.1168827382
C  C65  1  0.55500000  0.29990000  0.83100000  1.0 -0.0713844142
C  C66  1  0.59100000  0.33140000  0.95500000  1.0 0.0187842832
C  C67  1  0.45800000  0.36200000  0.97100000  1.0 -0.0713844142
C  C68  1  0.35700000  0.37800000  0.85700000  1.0 -0.1343580917
C  C69  1  0.42400000  0.35400000  0.77100000  1.0 0.0880762428
C  C70  1  0.66100000  0.33400000  0.78600000  1.0 0.1935945391
C  C71  1  0.64500000  0.23800000  0.02600000  1.0 0.0316874399
C  C72  1  0.67700000  0.42700000  0.97500000  1.0 -0.0500554098
O  O1  1  0.57670000  0.38000000  0.33310000  1.0 -0.4217945397
O  O2  1  0.38250000  0.35920000  0.24860000  1.0 -0.3987388075
O  O3  1  0.41580000  0.94150000  0.85580000  1.0 -0.4328092794
O  O4  1  0.62290000  0.96140000  0.93020000  1.0 -0.4396805898
O  O5  1  0.43860000  0.07310000  0.60080000  1.0 -0.4328092794
O  O6  1  0.64200000  0.03340000  0.64580000  1.0 -0.4396805898
O  O7  1  0.57230000  0.64630000  0.20850000  1.0 -0.4328092794
O  O8  1  0.35910000  0.64050000  0.17650000  1.0 -0.4759531081
O  O9  1  0.42330000  0.88000000  0.66690000  1.0 -0.4217945397
O  O10  1  0.61750000  0.85920000  0.75140000  1.0 -0.3987388075
O  O11  1  0.58420000  0.44150000  0.14420000  1.0 -0.4328092794
O  O12  1  0.37710000  0.46140000  0.06980000  1.0 -0.4396805898
O  O13  1  0.56140000  0.57310000  0.39920000  1.0 -0.4328092794
O  O14  1  0.35800000  0.53340000  0.35420000  1.0 -0.4396805898
O  O15  1  0.42770000  0.14630000  0.79150000  1.0 -0.4328092794
O  O16  1  0.64090000  0.14050000  0.82350000  1.0 -0.4759531081
