# DDEC6 charges by PACMAN v1.1 (https://github.com/mtap-research/PACMAN-charge/)
data_YIGKOR_ASR_pacman
_symmetry_space_group_name_H-M   'P 1'
_cell_length_a   10.69800000
_cell_length_b   26.97100000
_cell_length_c   11.22500000
_cell_angle_alpha   90.00000000
_cell_angle_beta   107.24700000
_cell_angle_gamma   90.00000000
_symmetry_Int_Tables_number   1
_chemical_formula_structural   CuH14(C5O2)2
_chemical_formula_sum   'Cu8 H112 C80 O32'
_cell_volume   3093.18213961
_cell_formula_units_Z   8
loop_
 _symmetry_equiv_pos_site_id
 _symmetry_equiv_pos_as_xyz
  1  'x, y, z'
loop_
 _atom_site_type_symbol
 _atom_site_label
 _atom_site_symmetry_multiplicity
 _atom_site_fract_x
 _atom_site_fract_y
 _atom_site_fract_z
 _atom_site_occupancy
 _atom_site_charge
Cu  Cu1  1  0.16379000  0.50736000  0.15087000  1.0 0.8182114122
Cu  Cu2  1  0.73283000  0.25011000  0.25116000  1.0 0.8416844068
Cu  Cu3  1  0.86234000  0.27685000  0.07599000  1.0 0.7289547382
Cu  Cu4  1  0.37322000  0.50390000  0.34016000  1.0 0.8139102219
Cu  Cu5  1  0.83621000  0.00736000  0.84913000  1.0 0.8182114122
Cu  Cu6  1  0.26717000  0.75011000  0.74884000  1.0 0.8416844068
Cu  Cu7  1  0.13766000  0.77685000  0.92401000  1.0 0.7289547382
Cu  Cu8  1  0.62678000  0.00390000  0.65984000  1.0 0.8139102219
H  H1  1  0.09880000  0.35560000  0.24940000  1.0 0.119637366
H  H2  1  0.28950000  0.65840000  0.10780000  1.0 0.119637366
H  H3  1  0.63810000  0.70570000  0.00460000  1.0 0.145766264
H  H4  1  0.70770000  0.70090000  0.14820000  1.0 0.119637366
H  H5  1  0.64790000  0.75190000  0.09180000  1.0 0.1397881603
H  H6  1  0.33400000  0.69770000  0.29070000  1.0 0.119637366
H  H7  1  0.45730000  0.66440000  0.35360000  1.0 0.119637366
H  H8  1  0.58400000  0.71900000  0.29700000  1.0 0.1035199037
H  H9  1  0.46060000  0.75160000  0.23190000  1.0 0.1113165722
H  H10  1  0.60560000  0.50590000  0.08970000  1.0 0.119637366
H  H11  1  0.62160000  0.48540000  0.96380000  1.0 0.1113165722
H  H12  1  0.60000000  0.40440000  0.21500000  1.0 0.128092887
H  H13  1  0.36290000  0.33870000  0.38950000  1.0 0.1113165722
H  H14  1  0.28070000  0.31030000  0.26880000  1.0 0.1113165722
H  H15  1  0.26690000  0.61010000  0.53410000  1.0 0.119637366
H  H16  1  0.30090000  0.36890000  0.56730000  1.0 0.128092887
H  H17  1  0.18780000  0.38170000  0.62440000  1.0 0.128092887
H  H18  1  0.23100000  0.42050000  0.54050000  1.0 0.1397881603
H  H19  1  0.84790000  0.55590000  0.44280000  1.0 0.128092887
H  H20  1  0.89390000  0.50810000  0.38860000  1.0 0.1397881603
H  H21  1  0.87070000  0.55730000  0.31110000  1.0 0.1397881603
H  H22  1  0.67040000  0.61860000  0.15090000  1.0 0.128092887
H  H23  1  0.58030000  0.58380000  0.20170000  1.0 0.1397881603
H  H24  1  0.63240000  0.63360000  0.27060000  1.0 0.128092887
H  H25  1  0.21980000  0.25500000  0.38590000  1.0 0.119637366
H  H26  1  0.30480000  0.28250000  0.50630000  1.0 0.1113165722
H  H27  1  0.58130000  0.38860000  0.89530000  1.0 0.128092887
H  H28  1  0.43280000  0.37420000  0.84730000  1.0 0.128092887
H  H29  1  0.53400000  0.33760000  0.93310000  1.0 0.1397881603
H  H30  1  0.13060000  0.50570000  0.59290000  1.0 0.1113165722
H  H31  1  0.02120000  0.53680000  0.62700000  1.0 0.1035199037
H  H32  1  0.09650000  0.25550000  0.58740000  1.0 0.1397881603
H  H33  1  0.02400000  0.30550000  0.59450000  1.0 0.1397881603
H  H34  1  0.17700000  0.30280000  0.64480000  1.0 0.119637366
H  H35  1  0.95990000  0.38850000  0.48670000  1.0 0.1397881603
H  H36  1  0.92490000  0.37540000  0.34450000  1.0 0.1397881603
H  H37  1  0.99880000  0.42490000  0.39470000  1.0 0.1397881603
H  H38  1  0.98310000  0.64310000  0.29840000  1.0 0.1397881603
H  H39  1  0.13130000  0.63000000  0.32270000  1.0 0.1397881603
H  H40  1  0.09160000  0.67890000  0.37750000  1.0 0.1397881603
H  H41  1  0.51350000  0.62120000  0.94620000  1.0 0.1397881603
H  H42  1  0.36760000  0.63700000  0.92530000  1.0 0.1397881603
H  H43  1  0.41790000  0.58610000  0.98880000  1.0 0.1397881603
H  H44  1  0.28350000  0.56020000  0.69200000  1.0 0.1113165722
H  H45  1  0.17640000  0.58850000  0.73640000  1.0 0.1113165722
H  H46  1  0.87820000  0.63660000  0.45080000  1.0 0.119637366
H  H47  1  0.97700000  0.67230000  0.54250000  1.0 0.1397881603
H  H48  1  0.94920000  0.61960000  0.58760000  1.0 0.128092887
H  H49  1  0.75250000  0.42810000  0.06110000  1.0 0.119637366
H  H50  1  0.75190000  0.45350000  0.18710000  1.0 0.1113165722
H  H51  1  0.36210000  0.38270000  0.13290000  1.0 0.1397881603
H  H52  1  0.40020000  0.33370000  0.07710000  1.0 0.1397881603
H  H53  1  0.29900000  0.37030000  0.99130000  1.0 0.1397881603
H  H54  1  0.42490000  0.45260000  0.81590000  1.0 0.128092887
H  H55  1  0.37200000  0.50070000  0.86270000  1.0 0.1397881603
H  H56  1  0.29490000  0.45070000  0.85320000  1.0 0.145766264
H  H57  1  0.90120000  0.85560000  0.75060000  1.0 0.119637366
H  H58  1  0.71050000  0.15840000  0.89220000  1.0 0.119637366
H  H59  1  0.36190000  0.20570000  0.99540000  1.0 0.145766264
H  H60  1  0.29230000  0.20090000  0.85180000  1.0 0.119637366
H  H61  1  0.35210000  0.25190000  0.90820000  1.0 0.1397881603
H  H62  1  0.66600000  0.19770000  0.70930000  1.0 0.119637366
H  H63  1  0.54270000  0.16440000  0.64640000  1.0 0.119637366
H  H64  1  0.41600000  0.21900000  0.70300000  1.0 0.1035199037
H  H65  1  0.53940000  0.25160000  0.76810000  1.0 0.1113165722
H  H66  1  0.39440000  0.00590000  0.91030000  1.0 0.119637366
H  H67  1  0.37840000  0.98540000  0.03620000  1.0 0.1113165722
H  H68  1  0.40000000  0.90440000  0.78500000  1.0 0.128092887
H  H69  1  0.63710000  0.83870000  0.61050000  1.0 0.1113165722
H  H70  1  0.71930000  0.81030000  0.73120000  1.0 0.1113165722
H  H71  1  0.73310000  0.11010000  0.46590000  1.0 0.119637366
H  H72  1  0.69910000  0.86890000  0.43270000  1.0 0.128092887
H  H73  1  0.81220000  0.88170000  0.37560000  1.0 0.128092887
H  H74  1  0.76900000  0.92050000  0.45950000  1.0 0.1397881603
H  H75  1  0.15210000  0.05590000  0.55720000  1.0 0.128092887
H  H76  1  0.10610000  0.00810000  0.61140000  1.0 0.1397881603
H  H77  1  0.12930000  0.05730000  0.68890000  1.0 0.1397881603
H  H78  1  0.32960000  0.11860000  0.84910000  1.0 0.128092887
H  H79  1  0.41970000  0.08380000  0.79830000  1.0 0.1397881603
H  H80  1  0.36760000  0.13360000  0.72940000  1.0 0.128092887
H  H81  1  0.78020000  0.75500000  0.61410000  1.0 0.119637366
H  H82  1  0.69520000  0.78250000  0.49370000  1.0 0.1113165722
H  H83  1  0.41870000  0.88860000  0.10470000  1.0 0.128092887
H  H84  1  0.56720000  0.87420000  0.15270000  1.0 0.128092887
H  H85  1  0.46600000  0.83760000  0.06690000  1.0 0.1397881603
H  H86  1  0.86940000  0.00570000  0.40710000  1.0 0.1113165722
H  H87  1  0.97880000  0.03680000  0.37300000  1.0 0.1035199037
H  H88  1  0.90350000  0.75550000  0.41260000  1.0 0.1397881603
H  H89  1  0.97600000  0.80550000  0.40550000  1.0 0.1397881603
H  H90  1  0.82300000  0.80280000  0.35520000  1.0 0.119637366
H  H91  1  0.04010000  0.88850000  0.51330000  1.0 0.1397881603
H  H92  1  0.07510000  0.87540000  0.65550000  1.0 0.1397881603
H  H93  1  0.00120000  0.92490000  0.60530000  1.0 0.1397881603
H  H94  1  0.01690000  0.14310000  0.70160000  1.0 0.1397881603
H  H95  1  0.86870000  0.13000000  0.67730000  1.0 0.1397881603
H  H96  1  0.90840000  0.17890000  0.62250000  1.0 0.1397881603
H  H97  1  0.48650000  0.12120000  0.05380000  1.0 0.1397881603
H  H98  1  0.63240000  0.13700000  0.07470000  1.0 0.1397881603
H  H99  1  0.58210000  0.08610000  0.01120000  1.0 0.1397881603
H  H100  1  0.71650000  0.06020000  0.30800000  1.0 0.1113165722
H  H101  1  0.82360000  0.08850000  0.26360000  1.0 0.1113165722
H  H102  1  0.12180000  0.13660000  0.54920000  1.0 0.119637366
H  H103  1  0.02300000  0.17230000  0.45750000  1.0 0.1397881603
H  H104  1  0.05080000  0.11960000  0.41240000  1.0 0.128092887
H  H105  1  0.24750000  0.92810000  0.93890000  1.0 0.1113165722
H  H106  1  0.24810000  0.95350000  0.81290000  1.0 0.1113165722
H  H107  1  0.63790000  0.88270000  0.86710000  1.0 0.1397881603
H  H108  1  0.59980000  0.83370000  0.92290000  1.0 0.1397881603
H  H109  1  0.70100000  0.87030000  0.00870000  1.0 0.1397881603
H  H110  1  0.57510000  0.95260000  0.18410000  1.0 0.128092887
H  H111  1  0.62800000  0.00070000  0.13730000  1.0 0.1397881603
H  H112  1  0.70510000  0.95070000  0.14680000  1.0 0.145766264
C  C1  1  0.21000000  0.41850000  0.29230000  1.0 0.5981577543
C  C2  1  0.17050000  0.36630000  0.32160000  1.0 -0.1809354466
C  C3  1  0.50710000  0.70230000  0.10650000  1.0 0.042478217
C  C4  1  0.36720000  0.64460000  0.16870000  1.0 -0.1809354466
C  C5  1  0.47980000  0.64510000  0.10810000  1.0 0.2164517848
C  C6  1  0.23400000  0.66840000  0.63520000  1.0 0.5704365728
C  C7  1  0.63730000  0.71650000  0.08580000  1.0 -0.4485228053
C  C8  1  0.48970000  0.39540000  0.02890000  1.0 0.2164517848
C  C9  1  0.11820000  0.36420000  0.43670000  1.0 0.2164517848
C  C10  1  0.45860000  0.45280000  0.00610000  1.0 0.0490340052
C  C11  1  0.12840000  0.53900000  0.37790000  1.0 0.5493548272
C  C12  1  0.40940000  0.68120000  0.27740000  1.0 -0.1678532766
C  C13  1  0.33190000  0.59240000  0.20180000  1.0 0.5981577543
C  C14  1  0.49760000  0.71860000  0.23680000  1.0 -0.2020825487
C  C15  1  0.11010000  0.30540000  0.45400000  1.0 0.0490340052
C  C16  1  0.98530000  0.28660000  0.35100000  1.0 0.5615073202
C  C17  1  0.39030000  0.47280000  0.10030000  1.0 0.5493548272
C  C18  1  0.60130000  0.47630000  0.03960000  1.0 -0.2020825487
C  C19  1  0.62210000  0.39600000  0.13870000  1.0 -0.1678532766
C  C20  1  0.39480000  0.72760000  0.00500000  1.0 0.5615073202
C  C21  1  0.27740000  0.32510000  0.34650000  1.0 -0.1678532766
C  C22  1  0.06850000  0.61730000  0.47580000  1.0 0.2121418772
C  C23  1  0.20030000  0.61810000  0.57510000  1.0 -0.1809354466
C  C24  1  0.21900000  0.38590000  0.55320000  1.0 -0.4485228053
C  C25  1  0.04410000  0.55830000  0.45450000  1.0 0.0490340052
C  C26  1  0.68730000  0.34520000  0.15930000  1.0 0.590006089
C  C27  1  0.90070000  0.54350000  0.39350000  1.0 -0.4406291487
C  C28  1  0.60240000  0.61770000  0.19070000  1.0 -0.4485228053
C  C29  1  0.23580000  0.28680000  0.42830000  1.0 -0.208815323
C  C30  1  0.51140000  0.37180000  0.91610000  1.0 -0.4485228053
C  C31  1  0.09300000  0.53860000  0.59090000  1.0 -0.2020825487
C  C32  1  0.10110000  0.29100000  0.58190000  1.0 -0.4485228053
C  C33  1  0.98860000  0.39070000  0.41350000  1.0 -0.4675537141
C  C34  1  0.06870000  0.64490000  0.35770000  1.0 -0.4576878564
C  C35  1  0.44110000  0.62000000  0.98020000  1.0 -0.4576878564
C  C36  1  0.19840000  0.57610000  0.66400000  1.0 -0.1678532766
C  C37  1  0.95820000  0.63840000  0.51800000  1.0 -0.4485228053
C  C38  1  0.69690000  0.43900000  0.11030000  1.0 -0.1678532766
C  C39  1  0.37710000  0.36790000  0.06050000  1.0 -0.4675537141
C  C40  1  0.38030000  0.46540000  0.87200000  1.0 -0.4406291487
C  C41  1  0.79000000  0.91850000  0.70770000  1.0 0.5981577543
C  C42  1  0.82950000  0.86630000  0.67840000  1.0 -0.1809354466
C  C43  1  0.49290000  0.20230000  0.89350000  1.0 0.042478217
C  C44  1  0.63280000  0.14460000  0.83130000  1.0 -0.1809354466
C  C45  1  0.52020000  0.14510000  0.89190000  1.0 0.2164517848
C  C46  1  0.76600000  0.16840000  0.36480000  1.0 0.5704365728
C  C47  1  0.36270000  0.21650000  0.91420000  1.0 -0.4485228053
C  C48  1  0.51030000  0.89540000  0.97110000  1.0 0.2164517848
C  C49  1  0.88180000  0.86420000  0.56330000  1.0 0.2164517848
C  C50  1  0.54140000  0.95280000  0.99390000  1.0 0.0490340052
C  C51  1  0.87160000  0.03900000  0.62210000  1.0 0.5493548272
C  C52  1  0.59060000  0.18120000  0.72260000  1.0 -0.1678532766
C  C53  1  0.66810000  0.09240000  0.79820000  1.0 0.5981577543
C  C54  1  0.50240000  0.21860000  0.76320000  1.0 -0.2020825487
C  C55  1  0.88990000  0.80540000  0.54600000  1.0 0.0490340052
C  C56  1  0.01470000  0.78660000  0.64900000  1.0 0.5615073202
C  C57  1  0.60970000  0.97280000  0.89970000  1.0 0.5493548272
C  C58  1  0.39870000  0.97630000  0.96040000  1.0 -0.2020825487
C  C59  1  0.37790000  0.89600000  0.86130000  1.0 -0.1678532766
C  C60  1  0.60520000  0.22760000  0.99500000  1.0 0.5615073202
C  C61  1  0.72260000  0.82510000  0.65350000  1.0 -0.1678532766
C  C62  1  0.93150000  0.11730000  0.52420000  1.0 0.2121418772
C  C63  1  0.79970000  0.11810000  0.42490000  1.0 -0.1809354466
C  C64  1  0.78100000  0.88590000  0.44680000  1.0 -0.4485228053
C  C65  1  0.95590000  0.05830000  0.54550000  1.0 0.0490340052
C  C66  1  0.31270000  0.84520000  0.84070000  1.0 0.590006089
C  C67  1  0.09930000  0.04350000  0.60650000  1.0 -0.4406291487
C  C68  1  0.39760000  0.11770000  0.80930000  1.0 -0.4485228053
C  C69  1  0.76420000  0.78680000  0.57170000  1.0 -0.208815323
C  C70  1  0.48860000  0.87180000  0.08390000  1.0 -0.4485228053
C  C71  1  0.90700000  0.03860000  0.40910000  1.0 -0.2020825487
C  C72  1  0.89890000  0.79100000  0.41810000  1.0 -0.4485228053
C  C73  1  0.01140000  0.89070000  0.58650000  1.0 -0.4675537141
C  C74  1  0.93130000  0.14490000  0.64230000  1.0 -0.4576878564
C  C75  1  0.55890000  0.12000000  0.01980000  1.0 -0.4576878564
C  C76  1  0.80160000  0.07610000  0.33600000  1.0 -0.1678532766
C  C77  1  0.04180000  0.13840000  0.48200000  1.0 -0.4485228053
C  C78  1  0.30310000  0.93900000  0.88970000  1.0 -0.1678532766
C  C79  1  0.62290000  0.86790000  0.93950000  1.0 -0.4675537141
C  C80  1  0.61970000  0.96540000  0.12800000  1.0 -0.4406291487
O  O1  1  0.12550000  0.44210000  0.21100000  1.0 -0.5172703507
O  O2  1  0.32230000  0.43450000  0.35360000  1.0 -0.5389372798
O  O3  1  0.23520000  0.57280000  0.12430000  1.0 -0.5172703507
O  O4  1  0.07600000  0.53880000  0.25910000  1.0 -0.5114029171
O  O5  1  0.45680000  0.48440000  0.20870000  1.0 -0.5114029171
O  O6  1  0.24230000  0.52470000  0.42940000  1.0 -0.5114029171
O  O7  1  0.88610000  0.27510000  0.38270000  1.0 -0.483854899
O  O8  1  0.99560000  0.28330000  0.24160000  1.0 -0.5615554841
O  O9  1  0.65630000  0.31530000  0.22940000  1.0 -0.4964260103
O  O10  1  0.19290000  0.68170000  0.72060000  1.0 -0.4947177114
O  O11  1  0.39790000  0.57390000  0.30630000  1.0 -0.5324610116
O  O12  1  0.29810000  0.74450000  0.03170000  1.0 -0.5389372798
O  O13  1  0.26490000  0.47560000  0.05390000  1.0 -0.5114029171
O  O14  1  0.30990000  0.69660000  0.59550000  1.0 -0.5808468105
O  O15  1  0.40790000  0.72740000  0.89480000  1.0 -0.5114029171
O  O16  1  0.76940000  0.33670000  0.09950000  1.0 -0.5615554841
O  O17  1  0.87450000  0.94210000  0.78900000  1.0 -0.5172703507
O  O18  1  0.67770000  0.93450000  0.64640000  1.0 -0.5389372798
O  O19  1  0.76480000  0.07280000  0.87570000  1.0 -0.5172703507
O  O20  1  0.92400000  0.03880000  0.74090000  1.0 -0.5114029171
O  O21  1  0.54320000  0.98440000  0.79130000  1.0 -0.5114029171
O  O22  1  0.75770000  0.02470000  0.57060000  1.0 -0.5114029171
O  O23  1  0.11390000  0.77510000  0.61730000  1.0 -0.483854899
O  O24  1  0.00440000  0.78330000  0.75840000  1.0 -0.5615554841
O  O25  1  0.34370000  0.81530000  0.77060000  1.0 -0.4964260103
O  O26  1  0.80710000  0.18170000  0.27940000  1.0 -0.4947177114
O  O27  1  0.60210000  0.07390000  0.69370000  1.0 -0.5324610116
O  O28  1  0.70190000  0.24450000  0.96830000  1.0 -0.5389372798
O  O29  1  0.73510000  0.97560000  0.94610000  1.0 -0.5114029171
O  O30  1  0.69010000  0.19660000  0.40450000  1.0 -0.5808468105
O  O31  1  0.59210000  0.22740000  0.10520000  1.0 -0.5114029171
O  O32  1  0.23060000  0.83670000  0.90050000  1.0 -0.5615554841
