# DDEC6 charges by PACMAN v1.1 (https://github.com/mtap-research/PACMAN-charge/)
data_YIGKEH_ASR_pacman
_symmetry_space_group_name_H-M   'P 1'
_cell_length_a   12.23690000
_cell_length_b   12.23690000
_cell_length_c   39.18800000
_cell_angle_alpha   90.00000000
_cell_angle_beta   90.00000000
_cell_angle_gamma   120.00000000
_symmetry_Int_Tables_number   1
_chemical_formula_structural   CuH14(C5O2)2
_chemical_formula_sum   'Cu12 H168 C120 O48'
_cell_volume   5081.90512727
_cell_formula_units_Z   12
loop_
 _symmetry_equiv_pos_site_id
 _symmetry_equiv_pos_as_xyz
  1  'x, y, z'
loop_
 _atom_site_type_symbol
 _atom_site_label
 _atom_site_symmetry_multiplicity
 _atom_site_fract_x
 _atom_site_fract_y
 _atom_site_fract_z
 _atom_site_occupancy
 _atom_site_charge
Cu  Cu1  1  0.46151000  0.17086000  0.42801000  1.0 0.7873941544
Cu  Cu2  1  0.65152000  0.14530000  0.40864000  1.0 0.7593672954
Cu  Cu3  1  0.70935000  0.53849000  0.76134000  1.0 0.7873941544
Cu  Cu4  1  0.49378000  0.34848000  0.74198000  1.0 0.7593672954
Cu  Cu5  1  0.82914000  0.29065000  0.09467000  1.0 0.7873941544
Cu  Cu6  1  0.85470000  0.50622000  0.07531000  1.0 0.7593672954
Cu  Cu7  1  0.29065000  0.82914000  0.90533000  1.0 0.7873941544
Cu  Cu8  1  0.50622000  0.85470000  0.92469000  1.0 0.7593672954
Cu  Cu9  1  0.17086000  0.46151000  0.57200000  1.0 0.7873941544
Cu  Cu10  1  0.14530000  0.65152000  0.59135000  1.0 0.7593672954
Cu  Cu11  1  0.53849000  0.70935000  0.23866000  1.0 0.7873941544
Cu  Cu12  1  0.34848000  0.49378000  0.25802000  1.0 0.7593672954
H  H1  1  0.51910000  0.84570000  0.34066000  1.0 0.1207514637
H  H2  1  0.96560000  0.44130000  0.48277000  1.0 0.1094160535
H  H3  1  0.46140000  0.00090000  0.32587000  1.0 0.1382297331
H  H4  1  0.39980000  0.92640000  0.29217000  1.0 0.1382297331
H  H5  1  0.32230000  0.96350000  0.31666000  1.0 0.1305447722
H  H6  1  0.76910000  0.29560000  0.49817000  1.0 0.1382297331
H  H7  1  0.79740000  0.34920000  0.53536000  1.0 0.1305447722
H  H8  1  0.67390000  0.32560000  0.51687000  1.0 0.1382297331
H  H9  1  0.35440000  0.74070000  0.41337000  1.0 0.1030928232
H  H10  1  0.23170000  0.63920000  0.39447000  1.0 0.1094160535
H  H11  1  0.34810000  0.59250000  0.35996000  1.0 0.1030928232
H  H12  1  0.47040000  0.69060000  0.37977000  1.0 0.1030928232
H  H13  1  0.17950000  0.64700000  0.32497000  1.0 0.1305447722
H  H14  1  0.16230000  0.76250000  0.31627000  1.0 0.1207514637
H  H15  1  0.23980000  0.72540000  0.29176000  1.0 0.1305447722
H  H16  1  0.01950000  0.69820000  0.48027000  1.0 0.1030928232
H  H17  1  0.10180000  0.64980000  0.46157000  1.0 0.1030928232
H  H18  1  0.93060000  0.51280000  0.42647000  1.0 0.1094160535
H  H19  1  0.92530000  0.63950000  0.42586000  1.0 0.1094160535
H  H20  1  0.85570000  0.64800000  0.51787000  1.0 0.1305447722
H  H21  1  0.72540000  0.53160000  0.52797000  1.0 0.1305447722
H  H22  1  0.84880000  0.55510000  0.54646000  1.0 0.1305447722
H  H23  1  0.16520000  0.87030000  0.36856000  1.0 0.1382297331
H  H24  1  0.10760000  0.72360000  0.37036000  1.0 0.1207514637
H  H25  1  0.15670000  0.80510000  0.40366000  1.0 0.1382297331
H  H26  1  0.63540000  0.52740000  0.47627000  1.0 0.1382297331
H  H27  1  0.75770000  0.65930000  0.47207000  1.0 0.1305447722
H  H28  1  0.68390000  0.58260000  0.43966000  1.0 0.1305447722
H  H29  1  0.32660000  0.48090000  0.67400000  1.0 0.1207514637
H  H30  1  0.47570000  0.03440000  0.81610000  1.0 0.1094160535
H  H31  1  0.53950000  0.53860000  0.65920000  1.0 0.1382297331
H  H32  1  0.52660000  0.60020000  0.62550000  1.0 0.1382297331
H  H33  1  0.64120000  0.67770000  0.65000000  1.0 0.1305447722
H  H34  1  0.52650000  0.23090000  0.83150000  1.0 0.1382297331
H  H35  1  0.55180000  0.20260000  0.86870000  1.0 0.1305447722
H  H36  1  0.65170000  0.32610000  0.85020000  1.0 0.1382297331
H  H37  1  0.38630000  0.64560000  0.74670000  1.0 0.1030928232
H  H38  1  0.40750000  0.76830000  0.72780000  1.0 0.1094160535
H  H39  1  0.24440000  0.65190000  0.69330000  1.0 0.1030928232
H  H40  1  0.22020000  0.52960000  0.71310000  1.0 0.1030928232
H  H41  1  0.46750000  0.82050000  0.65830000  1.0 0.1305447722
H  H42  1  0.60020000  0.83770000  0.64960000  1.0 0.1207514637
H  H43  1  0.48560000  0.76020000  0.62510000  1.0 0.1305447722
H  H44  1  0.67870000  0.98050000  0.81360000  1.0 0.1030928232
H  H45  1  0.54800000  0.89820000  0.79490000  1.0 0.1030928232
H  H46  1  0.58220000  0.06940000  0.75980000  1.0 0.1094160535
H  H47  1  0.71420000  0.07470000  0.75920000  1.0 0.1094160535
H  H48  1  0.79230000  0.14430000  0.85120000  1.0 0.1305447722
H  H49  1  0.80620000  0.27460000  0.86130000  1.0 0.1305447722
H  H50  1  0.70630000  0.15120000  0.87980000  1.0 0.1305447722
H  H51  1  0.70510000  0.83480000  0.70190000  1.0 0.1382297331
H  H52  1  0.61600000  0.89240000  0.70370000  1.0 0.1207514637
H  H53  1  0.64840000  0.84330000  0.73700000  1.0 0.1382297331
H  H54  1  0.89200000  0.36460000  0.80960000  1.0 0.1382297331
H  H55  1  0.90160000  0.24230000  0.80540000  1.0 0.1305447722
H  H56  1  0.89870000  0.31610000  0.77300000  1.0 0.1305447722
H  H57  1  0.15430000  0.67340000  0.00733000  1.0 0.1207514637
H  H58  1  0.55870000  0.52430000  0.14943000  1.0 0.1094160535
H  H59  1  0.99910000  0.46050000  0.99253000  1.0 0.1382297331
H  H60  1  0.07360000  0.47340000  0.95883000  1.0 0.1382297331
H  H61  1  0.03650000  0.35880000  0.98333000  1.0 0.1305447722
H  H62  1  0.70440000  0.47350000  0.16483000  1.0 0.1382297331
H  H63  1  0.65080000  0.44820000  0.20203000  1.0 0.1305447722
H  H64  1  0.67440000  0.34830000  0.18353000  1.0 0.1382297331
H  H65  1  0.25930000  0.61370000  0.08003000  1.0 0.1030928232
H  H66  1  0.36080000  0.59250000  0.06113000  1.0 0.1094160535
H  H67  1  0.40750000  0.75560000  0.02663000  1.0 0.1030928232
H  H68  1  0.30940000  0.77980000  0.04643000  1.0 0.1030928232
H  H69  1  0.35300000  0.53250000  0.99163000  1.0 0.1305447722
H  H70  1  0.23750000  0.39980000  0.98293000  1.0 0.1207514637
H  H71  1  0.27460000  0.51440000  0.95843000  1.0 0.1305447722
H  H72  1  0.30180000  0.32130000  0.14693000  1.0 0.1030928232
H  H73  1  0.35020000  0.45200000  0.12823000  1.0 0.1030928232
H  H74  1  0.48720000  0.41780000  0.09313000  1.0 0.1094160535
H  H75  1  0.36050000  0.28580000  0.09253000  1.0 0.1094160535
H  H76  1  0.35200000  0.20770000  0.18453000  1.0 0.1305447722
H  H77  1  0.46840000  0.19380000  0.19463000  1.0 0.1305447722
H  H78  1  0.44490000  0.29370000  0.21313000  1.0 0.1305447722
H  H79  1  0.12970000  0.29490000  0.03523000  1.0 0.1382297331
H  H80  1  0.27640000  0.38400000  0.03703000  1.0 0.1207514637
H  H81  1  0.19490000  0.35160000  0.07033000  1.0 0.1382297331
H  H82  1  0.47260000  0.10800000  0.14293000  1.0 0.1382297331
H  H83  1  0.34070000  0.09840000  0.13873000  1.0 0.1305447722
H  H84  1  0.41740000  0.10130000  0.10633000  1.0 0.1305447722
H  H85  1  0.67340000  0.15430000  0.99267000  1.0 0.1207514637
H  H86  1  0.52430000  0.55870000  0.85057000  1.0 0.1094160535
H  H87  1  0.46050000  0.99910000  0.00747000  1.0 0.1382297331
H  H88  1  0.47340000  0.07360000  0.04117000  1.0 0.1382297331
H  H89  1  0.35880000  0.03650000  0.01667000  1.0 0.1305447722
H  H90  1  0.47350000  0.70440000  0.83517000  1.0 0.1382297331
H  H91  1  0.44820000  0.65080000  0.79797000  1.0 0.1305447722
H  H92  1  0.34830000  0.67440000  0.81647000  1.0 0.1382297331
H  H93  1  0.61370000  0.25930000  0.91997000  1.0 0.1030928232
H  H94  1  0.59250000  0.36080000  0.93887000  1.0 0.1094160535
H  H95  1  0.75560000  0.40750000  0.97337000  1.0 0.1030928232
H  H96  1  0.77980000  0.30940000  0.95357000  1.0 0.1030928232
H  H97  1  0.53250000  0.35300000  0.00837000  1.0 0.1305447722
H  H98  1  0.39980000  0.23750000  0.01707000  1.0 0.1207514637
H  H99  1  0.51440000  0.27460000  0.04157000  1.0 0.1305447722
H  H100  1  0.32130000  0.30180000  0.85307000  1.0 0.1030928232
H  H101  1  0.45200000  0.35020000  0.87177000  1.0 0.1030928232
H  H102  1  0.41780000  0.48720000  0.90687000  1.0 0.1094160535
H  H103  1  0.28580000  0.36050000  0.90747000  1.0 0.1094160535
H  H104  1  0.20770000  0.35200000  0.81547000  1.0 0.1207514637
H  H105  1  0.19380000  0.46840000  0.80537000  1.0 0.1305447722
H  H106  1  0.29370000  0.44490000  0.78687000  1.0 0.1305447722
H  H107  1  0.29490000  0.12970000  0.96477000  1.0 0.1452067577
H  H108  1  0.38400000  0.27640000  0.96297000  1.0 0.1207514637
H  H109  1  0.35160000  0.19490000  0.92967000  1.0 0.1382297331
H  H110  1  0.10800000  0.47260000  0.85707000  1.0 0.1382297331
H  H111  1  0.09840000  0.34070000  0.86127000  1.0 0.1305447722
H  H112  1  0.10130000  0.41740000  0.89367000  1.0 0.1305447722
H  H113  1  0.84570000  0.51910000  0.65934000  1.0 0.1207514637
H  H114  1  0.44130000  0.96560000  0.51724000  1.0 0.1094160535
H  H115  1  0.00090000  0.46140000  0.67414000  1.0 0.1382297331
H  H116  1  0.92640000  0.39980000  0.70783000  1.0 0.1382297331
H  H117  1  0.96350000  0.32230000  0.68334000  1.0 0.1305447722
H  H118  1  0.29560000  0.76910000  0.50184000  1.0 0.1382297331
H  H119  1  0.34920000  0.79740000  0.46464000  1.0 0.1305447722
H  H120  1  0.32560000  0.67390000  0.48313000  1.0 0.1382297331
H  H121  1  0.74070000  0.35440000  0.58664000  1.0 0.1030928232
H  H122  1  0.63920000  0.23170000  0.60554000  1.0 0.1094160535
H  H123  1  0.59250000  0.34810000  0.64004000  1.0 0.1030928232
H  H124  1  0.69060000  0.47040000  0.62024000  1.0 0.1030928232
H  H125  1  0.64700000  0.17950000  0.67504000  1.0 0.1305447722
H  H126  1  0.76250000  0.16230000  0.68373000  1.0 0.1207514637
H  H127  1  0.72540000  0.23980000  0.70823000  1.0 0.1305447722
H  H128  1  0.69820000  0.01950000  0.51973000  1.0 0.1030928232
H  H129  1  0.64980000  0.10180000  0.53843000  1.0 0.1030928232
H  H130  1  0.51280000  0.93060000  0.57354000  1.0 0.1094160535
H  H131  1  0.63950000  0.92530000  0.57413000  1.0 0.1094160535
H  H132  1  0.64800000  0.85570000  0.48213000  1.0 0.1305447722
H  H133  1  0.53160000  0.72540000  0.47203000  1.0 0.1305447722
H  H134  1  0.55510000  0.84880000  0.45354000  1.0 0.1305447722
H  H135  1  0.87030000  0.16520000  0.63143000  1.0 0.1382297331
H  H136  1  0.72360000  0.10760000  0.62963000  1.0 0.1207514637
H  H137  1  0.80510000  0.15670000  0.59633000  1.0 0.1382297331
H  H138  1  0.52740000  0.63540000  0.52373000  1.0 0.1382297331
H  H139  1  0.65930000  0.75770000  0.52794000  1.0 0.1305447722
H  H140  1  0.58260000  0.68390000  0.56034000  1.0 0.1305447722
H  H141  1  0.48090000  0.32660000  0.32600000  1.0 0.1207514637
H  H142  1  0.03440000  0.47570000  0.18390000  1.0 0.1094160535
H  H143  1  0.53860000  0.53950000  0.34080000  1.0 0.1382297331
H  H144  1  0.60020000  0.52660000  0.37450000  1.0 0.1382297331
H  H145  1  0.67770000  0.64120000  0.35000000  1.0 0.1305447722
H  H146  1  0.23090000  0.52650000  0.16850000  1.0 0.1382297331
H  H147  1  0.20260000  0.55180000  0.13130000  1.0 0.1305447722
H  H148  1  0.32610000  0.65170000  0.14980000  1.0 0.1382297331
H  H149  1  0.64560000  0.38630000  0.25330000  1.0 0.1030928232
H  H150  1  0.76830000  0.40750000  0.27220000  1.0 0.1094160535
H  H151  1  0.65190000  0.24440000  0.30670000  1.0 0.1030928232
H  H152  1  0.52960000  0.22020000  0.28690000  1.0 0.1030928232
H  H153  1  0.82050000  0.46750000  0.34170000  1.0 0.1305447722
H  H154  1  0.83770000  0.60020000  0.35040000  1.0 0.1207514637
H  H155  1  0.76020000  0.48560000  0.37490000  1.0 0.1305447722
H  H156  1  0.98050000  0.67870000  0.18640000  1.0 0.1030928232
H  H157  1  0.89820000  0.54800000  0.20510000  1.0 0.1030928232
H  H158  1  0.06940000  0.58220000  0.24020000  1.0 0.1094160535
H  H159  1  0.07470000  0.71420000  0.24080000  1.0 0.1094160535
H  H160  1  0.14430000  0.79230000  0.14880000  1.0 0.1305447722
H  H161  1  0.27460000  0.80620000  0.13870000  1.0 0.1305447722
H  H162  1  0.15120000  0.70630000  0.12020000  1.0 0.1305447722
H  H163  1  0.83480000  0.70510000  0.29810000  1.0 0.1382297331
H  H164  1  0.89240000  0.61600000  0.29630000  1.0 0.1207514637
H  H165  1  0.84330000  0.64840000  0.26300000  1.0 0.1382297331
H  H166  1  0.36460000  0.89200000  0.19040000  1.0 0.1382297331
H  H167  1  0.24230000  0.90160000  0.19460000  1.0 0.1305447722
H  H168  1  0.31610000  0.89870000  0.22700000  1.0 0.1305447722
C  C1  1  0.43980000  0.70260000  0.30246000  1.0 0.5675679826
C  C2  1  0.40480000  0.95170000  0.39006000  1.0 0.5262887163
C  C3  1  0.43560000  0.77230000  0.33647000  1.0 -0.1642951734
C  C4  1  0.04100000  0.53660000  0.52716000  1.0 0.5825545572
C  C5  1  0.70470000  0.37030000  0.44417000  1.0 0.5262887163
C  C6  1  0.33690000  0.81500000  0.33447000  1.0 0.1994471707
C  C7  1  0.30190000  0.81970000  0.37367000  1.0 0.0674980937
C  C8  1  0.83140000  0.48590000  0.49967000  1.0 0.1994471707
C  C9  1  0.96810000  0.51310000  0.49456000  1.0 -0.1702625338
C  C10  1  0.38440000  0.93750000  0.31566000  1.0 -0.4564403312
C  C11  1  0.76150000  0.35150000  0.51387000  1.0 -0.4720279293
C  C12  1  0.31450000  0.71290000  0.39116000  1.0 -0.2227619108
C  C13  1  0.39630000  0.67930000  0.36767000  1.0 -0.1702625338
C  C14  1  0.79510000  0.50720000  0.46157000  1.0 0.0674980937
C  C15  1  0.21910000  0.72980000  0.31516000  1.0 -0.4485580218
C  C16  1  0.01780000  0.62580000  0.46966000  1.0 -0.1702625338
C  C17  1  0.92060000  0.57260000  0.44027000  1.0 -0.2274693267
C  C18  1  0.81400000  0.56200000  0.52516000  1.0 -0.4485580218
C  C19  1  0.17060000  0.80360000  0.37966000  1.0 -0.4485580218
C  C20  1  0.70900000  0.57630000  0.46247000  1.0 -0.4564403312
C  C21  1  0.26280000  0.56020000  0.63580000  1.0 0.5675679826
C  C22  1  0.54690000  0.59520000  0.72340000  1.0 0.5262887163
C  C23  1  0.33670000  0.56440000  0.66980000  1.0 -0.1642951734
C  C24  1  0.49560000  0.95900000  0.86050000  1.0 0.5825545572
C  C25  1  0.66560000  0.29530000  0.77750000  1.0 0.5262887163
C  C26  1  0.47810000  0.66310000  0.66780000  1.0 0.1994471707
C  C27  1  0.51780000  0.69810000  0.70700000  1.0 0.0674980937
C  C28  1  0.65450000  0.16860000  0.83300000  1.0 0.1994471707
C  C29  1  0.54500000  0.03190000  0.82790000  1.0 -0.1702625338
C  C30  1  0.55310000  0.61560000  0.64900000  1.0 -0.4564403312
C  C31  1  0.59000000  0.23850000  0.84720000  1.0 -0.4720279293
C  C32  1  0.39840000  0.68550000  0.72450000  1.0 -0.2227619108
C  C33  1  0.28300000  0.60370000  0.70100000  1.0 -0.1702625338
C  C34  1  0.71210000  0.20490000  0.79490000  1.0 0.0674980937
C  C35  1  0.51070000  0.78090000  0.64850000  1.0 -0.4485580218
C  C36  1  0.60800000  0.98220000  0.80300000  1.0 -0.1702625338
C  C37  1  0.65200000  0.07940000  0.77360000  1.0 -0.2274693267
C  C38  1  0.74800000  0.18600000  0.85850000  1.0 -0.4485580218
C  C39  1  0.63300000  0.82940000  0.71300000  1.0 -0.4485580218
C  C40  1  0.86730000  0.29100000  0.79580000  1.0 -0.4564403312
C  C41  1  0.29740000  0.73720000  0.96913000  1.0 0.5675679826
C  C42  1  0.04830000  0.45310000  0.05673000  1.0 0.5262887163
C  C43  1  0.22770000  0.66330000  0.00313000  1.0 -0.1642951734
C  C44  1  0.46340000  0.50440000  0.19383000  1.0 0.5825545572
C  C45  1  0.62970000  0.33440000  0.11083000  1.0 0.5262887163
C  C46  1  0.18500000  0.52190000  0.00113000  1.0 0.1994471707
C  C47  1  0.18030000  0.48220000  0.04033000  1.0 0.0674980937
C  C48  1  0.51410000  0.34550000  0.16633000  1.0 0.1994471707
C  C49  1  0.48690000  0.45500000  0.16123000  1.0 -0.1702625338
C  C50  1  0.06250000  0.44690000  0.98233000  1.0 -0.4564403312
C  C51  1  0.64850000  0.41000000  0.18053000  1.0 -0.4720279293
C  C52  1  0.28710000  0.60160000  0.05783000  1.0 -0.2227619108
C  C53  1  0.32070000  0.71700000  0.03433000  1.0 -0.1702625338
C  C54  1  0.49280000  0.28790000  0.12823000  1.0 0.0674980937
C  C55  1  0.27020000  0.48930000  0.98183000  1.0 -0.4485580218
C  C56  1  0.37420000  0.39200000  0.13633000  1.0 -0.1702625338
C  C57  1  0.42740000  0.34800000  0.10693000  1.0 -0.2274693267
C  C58  1  0.43800000  0.25200000  0.19183000  1.0 -0.4485580218
C  C59  1  0.19640000  0.36700000  0.04633000  1.0 -0.4485580218
C  C60  1  0.42370000  0.13270000  0.12913000  1.0 -0.4564403312
C  C61  1  0.73720000  0.29740000  0.03087000  1.0 0.5675679826
C  C62  1  0.45310000  0.04830000  0.94327000  1.0 0.5262887163
C  C63  1  0.66330000  0.22770000  0.99687000  1.0 -0.1642951734
C  C64  1  0.50440000  0.46340000  0.80617000  1.0 0.5825545572
C  C65  1  0.33440000  0.62970000  0.88917000  1.0 0.5262887163
C  C66  1  0.52190000  0.18500000  0.99887000  1.0 0.1994471707
C  C67  1  0.48220000  0.18030000  0.95967000  1.0 0.0674980937
C  C68  1  0.34550000  0.51410000  0.83367000  1.0 0.1994471707
C  C69  1  0.45500000  0.48690000  0.83877000  1.0 -0.1702625338
C  C70  1  0.44690000  0.06250000  0.01767000  1.0 -0.4564403312
C  C71  1  0.41000000  0.64850000  0.81947000  1.0 -0.4720279293
C  C72  1  0.60160000  0.28710000  0.94217000  1.0 -0.2227619108
C  C73  1  0.71700000  0.32070000  0.96567000  1.0 -0.1702625338
C  C74  1  0.28790000  0.49280000  0.87177000  1.0 0.0674980937
C  C75  1  0.48930000  0.27020000  0.01817000  1.0 -0.4485580218
C  C76  1  0.39200000  0.37420000  0.86367000  1.0 -0.1702625338
C  C77  1  0.34800000  0.42740000  0.89307000  1.0 -0.2274693267
C  C78  1  0.25200000  0.43800000  0.80817000  1.0 -0.4485580218
C  C79  1  0.36700000  0.19640000  0.95367000  1.0 -0.4485580218
C  C80  1  0.13270000  0.42370000  0.87087000  1.0 -0.4564403312
C  C81  1  0.70260000  0.43980000  0.69754000  1.0 0.5675679826
C  C82  1  0.95170000  0.40480000  0.60994000  1.0 0.5262887163
C  C83  1  0.77230000  0.43560000  0.66353000  1.0 -0.1642951734
C  C84  1  0.53660000  0.04100000  0.47284000  1.0 0.5825545572
C  C85  1  0.37030000  0.70470000  0.55584000  1.0 0.5262887163
C  C86  1  0.81500000  0.33690000  0.66553000  1.0 0.1994471707
C  C87  1  0.81970000  0.30190000  0.62633000  1.0 0.0674980937
C  C88  1  0.48590000  0.83140000  0.50033000  1.0 0.1994471707
C  C89  1  0.51310000  0.96810000  0.50543000  1.0 -0.1702625338
C  C90  1  0.93750000  0.38440000  0.68434000  1.0 -0.4564403312
C  C91  1  0.35150000  0.76150000  0.48614000  1.0 -0.4720279293
C  C92  1  0.71290000  0.31450000  0.60884000  1.0 -0.2227619108
C  C93  1  0.67930000  0.39630000  0.63234000  1.0 -0.1702625338
C  C94  1  0.50720000  0.79510000  0.53843000  1.0 0.0674980937
C  C95  1  0.72980000  0.21910000  0.68483000  1.0 -0.4485580218
C  C96  1  0.62580000  0.01780000  0.53034000  1.0 -0.1702625338
C  C97  1  0.57260000  0.92060000  0.55973000  1.0 -0.2274693267
C  C98  1  0.56200000  0.81400000  0.47484000  1.0 -0.4485580218
C  C99  1  0.80360000  0.17060000  0.62033000  1.0 -0.4485580218
C  C100  1  0.57630000  0.70900000  0.53753000  1.0 -0.4564403312
C  C101  1  0.56020000  0.26280000  0.36420000  1.0 0.5675679826
C  C102  1  0.59520000  0.54690000  0.27660000  1.0 0.5262887163
C  C103  1  0.56440000  0.33670000  0.33020000  1.0 -0.1642951734
C  C104  1  0.95900000  0.49560000  0.13950000  1.0 0.5825545572
C  C105  1  0.29530000  0.66560000  0.22250000  1.0 0.5262887163
C  C106  1  0.66310000  0.47810000  0.33220000  1.0 0.1994471707
C  C107  1  0.69810000  0.51780000  0.29300000  1.0 0.0674980937
C  C108  1  0.16860000  0.65450000  0.16700000  1.0 0.1994471707
C  C109  1  0.03190000  0.54500000  0.17210000  1.0 -0.1702625338
C  C110  1  0.61560000  0.55310000  0.35100000  1.0 -0.4564403312
C  C111  1  0.23850000  0.59000000  0.15280000  1.0 -0.4720279293
C  C112  1  0.68550000  0.39840000  0.27550000  1.0 -0.2227619108
C  C113  1  0.60370000  0.28300000  0.29900000  1.0 -0.1702625338
C  C114  1  0.20490000  0.71210000  0.20510000  1.0 0.0674980937
C  C115  1  0.78090000  0.51070000  0.35150000  1.0 -0.4485580218
C  C116  1  0.98220000  0.60800000  0.19700000  1.0 -0.1702625338
C  C117  1  0.07940000  0.65200000  0.22640000  1.0 -0.2274693267
C  C118  1  0.18600000  0.74800000  0.14150000  1.0 -0.4485580218
C  C119  1  0.82940000  0.63300000  0.28700000  1.0 -0.4485580218
C  C120  1  0.29100000  0.86730000  0.20420000  1.0 -0.4564403312
O  O1  1  0.75180000  0.31970000  0.42857000  1.0 -0.4485580218
O  O2  1  0.58940000  0.32480000  0.45127000  1.0 -0.4905481653
O  O3  1  0.06480000  0.45560000  0.53366000  1.0 -0.4365140176
O  O4  1  0.07370000  0.63970000  0.54456000  1.0 -0.5409352398
O  O5  1  0.51340000  0.97340000  0.39256000  1.0 -0.4807497801
O  O6  1  0.36070000  0.01720000  0.40137000  1.0 -0.4905481653
O  O7  1  0.36550000  0.58740000  0.30007000  1.0 -0.5165559368
O  O8  1  0.50950000  0.77780000  0.28076000  1.0 -0.4807497801
O  O9  1  0.56790000  0.24820000  0.76190000  1.0 -0.4485580218
O  O10  1  0.73540000  0.41060000  0.78460000  1.0 -0.4905481653
O  O11  1  0.39080000  0.93520000  0.86700000  1.0 -0.4365140176
O  O12  1  0.56600000  0.92630000  0.87790000  1.0 -0.5409352398
O  O13  1  0.46000000  0.48660000  0.72590000  1.0 -0.4807497801
O  O14  1  0.65650000  0.63930000  0.73470000  1.0 -0.4905481653
O  O15  1  0.22190000  0.63450000  0.63340000  1.0 -0.5165559368
O  O16  1  0.26830000  0.49050000  0.61410000  1.0 -0.4807497801
O  O17  1  0.68030000  0.43210000  0.09523000  1.0 -0.4485580218
O  O18  1  0.67520000  0.26460000  0.11793000  1.0 -0.4905481653
O  O19  1  0.54440000  0.60920000  0.20033000  1.0 -0.4365140176
O  O20  1  0.36030000  0.43400000  0.21123000  1.0 -0.5409352398
O  O21  1  0.02660000  0.54000000  0.05923000  1.0 -0.4807497801
O  O22  1  0.98280000  0.34350000  0.06803000  1.0 -0.4905481653
O  O23  1  0.41260000  0.77810000  0.96673000  1.0 -0.5165559368
O  O24  1  0.22220000  0.73170000  0.94743000  1.0 -0.4807497801
O  O25  1  0.43210000  0.68030000  0.90477000  1.0 -0.4485580218
O  O26  1  0.26460000  0.67520000  0.88207000  1.0 -0.4905481653
O  O27  1  0.60920000  0.54440000  0.79967000  1.0 -0.4365140176
O  O28  1  0.43400000  0.36030000  0.78877000  1.0 -0.5409352398
O  O29  1  0.54000000  0.02660000  0.94077000  1.0 -0.4807497801
O  O30  1  0.34350000  0.98280000  0.93197000  1.0 -0.4905481653
O  O31  1  0.77810000  0.41260000  0.03327000  1.0 -0.5165559368
O  O32  1  0.73170000  0.22220000  0.05257000  1.0 -0.4807497801
O  O33  1  0.31970000  0.75180000  0.57144000  1.0 -0.4485580218
O  O34  1  0.32480000  0.58940000  0.54874000  1.0 -0.4905481653
O  O35  1  0.45560000  0.06480000  0.46634000  1.0 -0.4365140176
O  O36  1  0.63970000  0.07370000  0.45543000  1.0 -0.5409352398
O  O37  1  0.97340000  0.51340000  0.60743000  1.0 -0.4807497801
O  O38  1  0.01720000  0.36070000  0.59864000  1.0 -0.4905481653
O  O39  1  0.58740000  0.36550000  0.69993000  1.0 -0.5165559368
O  O40  1  0.77780000  0.50950000  0.71923000  1.0 -0.4807497801
O  O41  1  0.24820000  0.56790000  0.23810000  1.0 -0.4485580218
O  O42  1  0.41060000  0.73540000  0.21540000  1.0 -0.4905481653
O  O43  1  0.93520000  0.39080000  0.13300000  1.0 -0.4348376013
O  O44  1  0.92630000  0.56600000  0.12210000  1.0 -0.5409352398
O  O45  1  0.48660000  0.46000000  0.27410000  1.0 -0.4807497801
O  O46  1  0.63930000  0.65650000  0.26530000  1.0 -0.4905481653
O  O47  1  0.63450000  0.22190000  0.36660000  1.0 -0.5165559368
O  O48  1  0.49050000  0.26830000  0.38590000  1.0 -0.4807497801
