# DDEC6 charges by PACMAN v1.1 (https://github.com/mtap-research/PACMAN-charge/)
data_YIJXUN_FSR_pacman
_symmetry_space_group_name_H-M   'P 1'
_cell_length_a   11.23400000
_cell_length_b   13.22310000
_cell_length_c   17.49450000
_cell_angle_alpha   90.00000000
_cell_angle_beta   112.22000000
_cell_angle_gamma   90.00000000
_symmetry_Int_Tables_number   1
_chemical_formula_structural   Cu2H20W6C26N8O25
_chemical_formula_sum   'Cu4 H40 W12 C52 N16 O50'
_cell_volume   2405.78950822
_cell_formula_units_Z   2
loop_
 _symmetry_equiv_pos_site_id
 _symmetry_equiv_pos_as_xyz
  1  'x, y, z'
loop_
 _atom_site_type_symbol
 _atom_site_label
 _atom_site_symmetry_multiplicity
 _atom_site_fract_x
 _atom_site_fract_y
 _atom_site_fract_z
 _atom_site_occupancy
 _atom_site_charge
Cu  Cu1  1  0.36612000  0.08310000  0.85975000  1.0 0.717434764
Cu  Cu2  1  0.63388000  0.58310000  0.64025000  1.0 0.717434764
Cu  Cu3  1  0.63388000  0.91690000  0.14025000  1.0 0.717434764
Cu  Cu4  1  0.36612000  0.41690000  0.35975000  1.0 0.717434764
H  H1  1  0.11770000  0.83400000  0.51360000  1.0 0.1390557536
H  H2  1  0.21430000  0.12790000  0.52300000  1.0 0.1475942574
H  H3  1  0.12090000  0.84470000  0.63630000  1.0 0.1390557536
H  H4  1  0.20220000  0.89500000  0.78390000  1.0 0.1475942574
H  H5  1  0.05870000  0.13150000  0.24440000  1.0 0.1475942574
H  H6  1  0.08160000  0.83120000  0.37370000  1.0 0.1390557536
H  H7  1  0.10530000  0.97520000  0.30590000  1.0 0.1390557536
H  H8  1  0.14620000  0.29100000  0.21710000  1.0 0.128924057
H  H9  1  0.31860000  0.23500000  0.45400000  1.0 0.1390557536
H  H10  1  0.29450000  0.11050000  0.66200000  1.0 0.128924057
H  H11  1  0.88230000  0.33400000  0.98640000  1.0 0.1390557536
H  H12  1  0.78570000  0.62790000  0.97700000  1.0 0.1475942574
H  H13  1  0.87910000  0.34470000  0.86370000  1.0 0.1390557536
H  H14  1  0.79780000  0.39500000  0.71610000  1.0 0.1475942574
H  H15  1  0.94130000  0.63150000  0.25560000  1.0 0.1475942574
H  H16  1  0.91840000  0.33120000  0.12630000  1.0 0.1390557536
H  H17  1  0.89470000  0.47520000  0.19410000  1.0 0.1390557536
H  H18  1  0.85380000  0.79100000  0.28290000  1.0 0.128924057
H  H19  1  0.68140000  0.73500000  0.04600000  1.0 0.1390557536
H  H20  1  0.70550000  0.61050000  0.83800000  1.0 0.128924057
H  H21  1  0.88230000  0.16600000  0.48640000  1.0 0.1390557536
H  H22  1  0.78570000  0.87210000  0.47700000  1.0 0.1475942574
H  H23  1  0.87910000  0.15530000  0.36370000  1.0 0.1390557536
H  H24  1  0.79780000  0.10500000  0.21610000  1.0 0.1475942574
H  H25  1  0.94130000  0.86850000  0.75560000  1.0 0.1475942574
H  H26  1  0.91840000  0.16880000  0.62630000  1.0 0.1390557536
H  H27  1  0.89470000  0.02480000  0.69410000  1.0 0.1390557536
H  H28  1  0.85380000  0.70900000  0.78290000  1.0 0.128924057
H  H29  1  0.68140000  0.76500000  0.54600000  1.0 0.1390557536
H  H30  1  0.70550000  0.88950000  0.33800000  1.0 0.128924057
H  H31  1  0.11770000  0.66600000  0.01360000  1.0 0.1390557536
H  H32  1  0.21430000  0.37210000  0.02300000  1.0 0.1475942574
H  H33  1  0.12090000  0.65530000  0.13630000  1.0 0.1390557536
H  H34  1  0.20220000  0.60500000  0.28390000  1.0 0.1475942574
H  H35  1  0.05870000  0.36850000  0.74440000  1.0 0.1475942574
H  H36  1  0.08160000  0.66880000  0.87370000  1.0 0.1390557536
H  H37  1  0.10530000  0.52480000  0.80590000  1.0 0.1390557536
H  H38  1  0.14620000  0.20900000  0.71710000  1.0 0.128924057
H  H39  1  0.31860000  0.26500000  0.95400000  1.0 0.1390557536
H  H40  1  0.29450000  0.38950000  0.16200000  1.0 0.128924057
W  W1  1  0.16245000  0.11731000  0.05668000  1.0 2.3118312211
W  W2  1  0.92563000  0.09170000  0.87787000  1.0 2.2841902823
W  W3  1  0.13057000  0.90748000  0.95228000  1.0 2.265034482
W  W4  1  0.83755000  0.61731000  0.44332000  1.0 2.3118312211
W  W5  1  0.07437000  0.59170000  0.62213000  1.0 2.2841902823
W  W6  1  0.86943000  0.40748000  0.54772000  1.0 2.2645848245
W  W7  1  0.83755000  0.88269000  0.94332000  1.0 2.3118312211
W  W8  1  0.07437000  0.90830000  0.12213000  1.0 2.2841902823
W  W9  1  0.86943000  0.09252000  0.04772000  1.0 2.265034482
W  W10  1  0.16245000  0.38269000  0.55668000  1.0 2.3118312211
W  W11  1  0.92563000  0.40830000  0.37787000  1.0 2.2841902823
W  W12  1  0.13057000  0.59252000  0.45228000  1.0 2.2645848245
C  C1  1  0.13030000  0.89210000  0.48770000  1.0 -0.180359356
C  C2  1  0.16180000  0.06560000  0.40740000  1.0 0.1998138206
C  C3  1  0.18740000  0.06830000  0.49320000  1.0 -0.2811811938
C  C4  1  0.16560000  0.90350000  0.65910000  1.0 -0.0829152501
C  C5  1  0.21200000  0.93150000  0.74120000  1.0 0.0111779101
C  C6  1  0.49640000  0.94900000  0.97840000  1.0 0.4753170163
C  C7  1  0.12100000  0.17130000  0.28290000  1.0 -0.070147585
C  C8  1  0.10730000  0.89120000  0.40310000  1.0 -0.0323179754
C  C9  1  0.12180000  0.97690000  0.36210000  1.0 -0.1903271376
C  C10  1  0.17050000  0.25880000  0.26810000  1.0 -0.0207941931
C  C11  1  0.26580000  0.22900000  0.39850000  1.0 0.1475942574
C  C12  1  0.26280000  0.05020000  0.67400000  1.0 0.1028773823
C  C13  1  0.17190000  0.98080000  0.53200000  1.0 0.1922991128
C  C14  1  0.86970000  0.39210000  0.01230000  1.0 -0.180359356
C  C15  1  0.83820000  0.56560000  0.09260000  1.0 0.1998138206
C  C16  1  0.81260000  0.56830000  0.00680000  1.0 -0.2811811938
C  C17  1  0.83440000  0.40350000  0.84090000  1.0 -0.0829152501
C  C18  1  0.78800000  0.43150000  0.75880000  1.0 0.0111779101
C  C19  1  0.50360000  0.44900000  0.52160000  1.0 0.4753170163
C  C20  1  0.87900000  0.67130000  0.21710000  1.0 -0.070147585
C  C21  1  0.89270000  0.39120000  0.09690000  1.0 -0.0323179754
C  C22  1  0.87820000  0.47690000  0.13790000  1.0 -0.1903271376
C  C23  1  0.82950000  0.75880000  0.23190000  1.0 -0.0207941931
C  C24  1  0.73420000  0.72900000  0.10150000  1.0 0.1475942574
C  C25  1  0.73720000  0.55020000  0.82600000  1.0 0.1028773823
C  C26  1  0.82810000  0.48080000  0.96800000  1.0 0.1922991128
C  C27  1  0.86970000  0.10790000  0.51230000  1.0 -0.180359356
C  C28  1  0.83820000  0.93440000  0.59260000  1.0 0.1998138206
C  C29  1  0.81260000  0.93170000  0.50680000  1.0 -0.2811811938
C  C30  1  0.83440000  0.09650000  0.34090000  1.0 -0.0829152501
C  C31  1  0.78800000  0.06850000  0.25880000  1.0 0.0111779101
C  C32  1  0.50360000  0.05100000  0.02160000  1.0 0.4753170163
C  C33  1  0.87900000  0.82870000  0.71710000  1.0 -0.070147585
C  C34  1  0.89270000  0.10880000  0.59690000  1.0 -0.0323179754
C  C35  1  0.87820000  0.02310000  0.63790000  1.0 -0.1903271376
C  C36  1  0.82950000  0.74120000  0.73190000  1.0 -0.0207941931
C  C37  1  0.73420000  0.77100000  0.60150000  1.0 0.1475942574
C  C38  1  0.73720000  0.94980000  0.32600000  1.0 0.1028773823
C  C39  1  0.82810000  0.01920000  0.46800000  1.0 0.1922991128
C  C40  1  0.13030000  0.60790000  0.98770000  1.0 -0.180359356
C  C41  1  0.16180000  0.43440000  0.90740000  1.0 0.1998138206
C  C42  1  0.18740000  0.43170000  0.99320000  1.0 -0.2811811938
C  C43  1  0.16560000  0.59650000  0.15910000  1.0 -0.0829152501
C  C44  1  0.21200000  0.56850000  0.24120000  1.0 0.0111779101
C  C45  1  0.49640000  0.55100000  0.47840000  1.0 0.4753170163
C  C46  1  0.12100000  0.32870000  0.78290000  1.0 -0.070147585
C  C47  1  0.10730000  0.60880000  0.90310000  1.0 -0.0323179754
C  C48  1  0.12180000  0.52310000  0.86210000  1.0 -0.1903271376
C  C49  1  0.17050000  0.24120000  0.76810000  1.0 -0.0207941931
C  C50  1  0.26580000  0.27100000  0.89850000  1.0 0.1475942574
C  C51  1  0.26280000  0.44980000  0.17400000  1.0 0.1028773823
C  C52  1  0.17190000  0.51920000  0.03200000  1.0 0.1922991128
N  N1  1  0.19890000  0.98020000  0.61780000  1.0 0.0111779101
N  N2  1  0.26350000  0.29280000  0.34140000  1.0 -0.2811811938
N  N3  1  0.27430000  0.02120000  0.74900000  1.0 -0.2811811938
N  N4  1  0.18100000  0.15260000  0.36640000  1.0 0.0111779101
N  N5  1  0.80110000  0.48020000  0.88220000  1.0 0.0111779101
N  N6  1  0.73650000  0.79280000  0.15860000  1.0 -0.2811811938
N  N7  1  0.72570000  0.52120000  0.75100000  1.0 -0.2811811938
N  N8  1  0.81900000  0.65260000  0.13360000  1.0 0.0111779101
N  N9  1  0.80110000  0.01980000  0.38220000  1.0 0.0111779101
N  N10  1  0.73650000  0.70720000  0.65860000  1.0 -0.2811811938
N  N11  1  0.72570000  0.97880000  0.25100000  1.0 -0.2811811938
N  N12  1  0.81900000  0.84740000  0.63360000  1.0 0.0111779101
N  N13  1  0.19890000  0.51980000  0.11780000  1.0 0.0111779101
N  N14  1  0.26350000  0.20720000  0.84140000  1.0 -0.2811811938
N  N15  1  0.27430000  0.47880000  0.24900000  1.0 -0.2811811938
N  N16  1  0.18100000  0.34740000  0.86640000  1.0 0.0111779101
O  O1  1  0.55400000  0.13700000  0.83400000  1.0 -0.2182807363
O  O2  1  0.54150000  0.87380000  0.02400000  1.0 -0.4487911015
O  O3  1  0.44230000  0.94900000  0.90150000  1.0 -0.4284022077
O  O4  1  0.23890000  0.01920000  0.00660000  1.0 -0.849533687
O  O5  1  0.97750000  0.82980000  0.91530000  1.0 -0.8582642897
O  O6  1  0.80750000  0.97980000  0.85590000  1.0 -0.849533687
O  O7  1  0.04600000  0.99980000  0.86240000  1.0 -0.849533687
O  O8  1  0.06580000  0.17070000  0.94750000  1.0 -0.8582642897
O  O9  1  0.87150000  0.15850000  0.78970000  1.0 -0.6246976404
O  O10  1  0.16830000  0.85230000  0.06070000  1.0 -0.8132947384
O  O11  1  0.28220000  0.20550000  0.09800000  1.0 -0.6923993378
O  O12  1  0.22420000  0.83840000  0.91790000  1.0 -0.600346282
O  O13  1  0.44600000  0.63700000  0.66600000  1.0 -0.2182807363
O  O14  1  0.45850000  0.37380000  0.47600000  1.0 -0.4487911015
O  O15  1  0.55770000  0.44900000  0.59850000  1.0 -0.4284022077
O  O16  1  0.76110000  0.51920000  0.49340000  1.0 -0.849533687
O  O17  1  0.02250000  0.32980000  0.58470000  1.0 -0.8582642897
O  O18  1  0.19250000  0.47980000  0.64410000  1.0 -0.849533687
O  O19  1  0.95400000  0.49980000  0.63760000  1.0 -0.849533687
O  O20  1  0.93420000  0.67070000  0.55250000  1.0 -0.8582642897
O  O21  1  0.12850000  0.65850000  0.71030000  1.0 -0.6246976404
O  O22  1  0.83170000  0.35230000  0.43930000  1.0 -0.8132947384
O  O23  1  0.71780000  0.70550000  0.40200000  1.0 -0.6923993378
O  O24  1  0.77580000  0.33840000  0.58210000  1.0 -0.600346282
O  O25  1  0.44600000  0.86300000  0.16600000  1.0 -0.2182807363
O  O26  1  0.45850000  0.12620000  0.97600000  1.0 -0.4487911015
O  O27  1  0.55770000  0.05100000  0.09850000  1.0 -0.4284022077
O  O28  1  0.76110000  0.98080000  0.99340000  1.0 -0.849533687
O  O29  1  0.02250000  0.17020000  0.08470000  1.0 -0.8582642897
O  O30  1  0.19250000  0.02020000  0.14410000  1.0 -0.849533687
O  O31  1  0.95400000  0.00020000  0.13760000  1.0 -0.849533687
O  O32  1  0.93420000  0.82930000  0.05250000  1.0 -0.8582642897
O  O33  1  0.12850000  0.84150000  0.21030000  1.0 -0.6261846571
O  O34  1  0.83170000  0.14770000  0.93930000  1.0 -0.8132947384
O  O35  1  0.71780000  0.79450000  0.90200000  1.0 -0.6923993378
O  O36  1  0.77580000  0.16160000  0.08210000  1.0 -0.600346282
O  O37  1  0.55400000  0.36300000  0.33400000  1.0 -0.2182807363
O  O38  1  0.54150000  0.62620000  0.52400000  1.0 -0.4487911015
O  O39  1  0.44230000  0.55100000  0.40150000  1.0 -0.4284022077
O  O40  1  0.23890000  0.48080000  0.50660000  1.0 -0.849533687
O  O41  1  0.97750000  0.67020000  0.41530000  1.0 -0.8582642897
O  O42  1  0.80750000  0.52020000  0.35590000  1.0 -0.849533687
O  O43  1  0.04600000  0.50020000  0.36240000  1.0 -0.849533687
O  O44  1  0.06580000  0.32930000  0.44750000  1.0 -0.8582642897
O  O45  1  0.87150000  0.34150000  0.28970000  1.0 -0.6246976404
O  O46  1  0.16830000  0.64770000  0.56070000  1.0 -0.8132947384
O  O47  1  0.28220000  0.29450000  0.59800000  1.0 -0.6923993378
O  O48  1  0.22420000  0.66160000  0.41790000  1.0 -0.600346282
O  O49  1  0.00000000  0.00000000  0.00000000  1.0 -1.2269847541
O  O50  1  0.00000000  0.50000000  0.50000000  1.0 -1.2269847541
