# DDEC6 charges by PACMAN v1.1 (https://github.com/mtap-research/PACMAN-charge/)
data_YILBEC_FSR_pacman
_symmetry_space_group_name_H-M   'P 1'
_cell_length_a   19.03060000
_cell_length_b   19.03060000
_cell_length_c   36.24450000
_cell_angle_alpha   90.00000000
_cell_angle_beta   90.00000000
_cell_angle_gamma   120.00000000
_symmetry_Int_Tables_number   1
_chemical_formula_structural   Zn6Cr3H36C84(N3O23)2
_chemical_formula_sum   'Zn12 Cr6 H72 C168 N12 O92'
_cell_volume   11367.83356915
_cell_formula_units_Z   2
loop_
 _symmetry_equiv_pos_site_id
 _symmetry_equiv_pos_as_xyz
  1  'x, y, z'
loop_
 _atom_site_type_symbol
 _atom_site_label
 _atom_site_symmetry_multiplicity
 _atom_site_fract_x
 _atom_site_fract_y
 _atom_site_fract_z
 _atom_site_occupancy
 _atom_site_charge
Zn  Zn1  1  0.51999000  0.48001000  0.53660000  1.0 0.8304728027
Zn  Zn2  1  0.51999000  0.03998000  0.53660000  1.0 0.8304728027
Zn  Zn3  1  0.96002000  0.48001000  0.53660000  1.0 0.8304728027
Zn  Zn4  1  0.48001000  0.51999000  0.03660000  1.0 0.8304728027
Zn  Zn5  1  0.48001000  0.96002000  0.03660000  1.0 0.8304728027
Zn  Zn6  1  0.03998000  0.51999000  0.03660000  1.0 0.8304728027
Zn  Zn7  1  0.48001000  0.51999000  0.46340000  1.0 0.8304728027
Zn  Zn8  1  0.03998000  0.51999000  0.46340000  1.0 0.8304728027
Zn  Zn9  1  0.48001000  0.96002000  0.46340000  1.0 0.8304728027
Zn  Zn10  1  0.51999000  0.48001000  0.96340000  1.0 0.8304728027
Zn  Zn11  1  0.96002000  0.48001000  0.96340000  1.0 0.8304728027
Zn  Zn12  1  0.51999000  0.03998000  0.96340000  1.0 0.8304728027
Cr  Cr1  1  0.55034000  0.27517000  0.75000000  1.0 1.3840704468
Cr  Cr2  1  0.72483000  0.27517000  0.75000000  1.0 1.3840704468
Cr  Cr3  1  0.72483000  0.44966000  0.75000000  1.0 1.3840704468
Cr  Cr4  1  0.44966000  0.72483000  0.25000000  1.0 1.3840704468
Cr  Cr5  1  0.27517000  0.72483000  0.25000000  1.0 1.3840704468
Cr  Cr6  1  0.27517000  0.55034000  0.25000000  1.0 1.3840704468
H  H1  1  0.67320000  0.53510000  0.65330000  1.0 0.1445936766
H  H2  1  0.46490000  0.13810000  0.65330000  1.0 0.1445936766
H  H3  1  0.86190000  0.32680000  0.65330000  1.0 0.1445936766
H  H4  1  0.32680000  0.46490000  0.15330000  1.0 0.1445936766
H  H5  1  0.53510000  0.86190000  0.15330000  1.0 0.1445936766
H  H6  1  0.13810000  0.67320000  0.15330000  1.0 0.1445936766
H  H7  1  0.53510000  0.67320000  0.34670000  1.0 0.1445936766
H  H8  1  0.13810000  0.46490000  0.34670000  1.0 0.1445936766
H  H9  1  0.32680000  0.86190000  0.34670000  1.0 0.1445936766
H  H10  1  0.46490000  0.32680000  0.84670000  1.0 0.1445936766
H  H11  1  0.86190000  0.53510000  0.84670000  1.0 0.1445936766
H  H12  1  0.67320000  0.13810000  0.84670000  1.0 0.1445936766
H  H13  1  0.32680000  0.46490000  0.34670000  1.0 0.1445936766
H  H14  1  0.53510000  0.86190000  0.34670000  1.0 0.1445936766
H  H15  1  0.13810000  0.67320000  0.34670000  1.0 0.1445936766
H  H16  1  0.67320000  0.53510000  0.84670000  1.0 0.1445936766
H  H17  1  0.46490000  0.13810000  0.84670000  1.0 0.1445936766
H  H18  1  0.86190000  0.32680000  0.84670000  1.0 0.1445936766
H  H19  1  0.46490000  0.32680000  0.65330000  1.0 0.1445936766
H  H20  1  0.86190000  0.53510000  0.65330000  1.0 0.1445936766
H  H21  1  0.67320000  0.13810000  0.65330000  1.0 0.1445936766
H  H22  1  0.53510000  0.67320000  0.15330000  1.0 0.1445936766
H  H23  1  0.13810000  0.46490000  0.15330000  1.0 0.1445936766
H  H24  1  0.32680000  0.86190000  0.15330000  1.0 0.1445936766
H  H25  1  0.64330000  0.55920000  0.59470000  1.0 0.1233647844
H  H26  1  0.44080000  0.08410000  0.59470000  1.0 0.1233647844
H  H27  1  0.91590000  0.35670000  0.59470000  1.0 0.1233647844
H  H28  1  0.35670000  0.44080000  0.09470000  1.0 0.1233647844
H  H29  1  0.55920000  0.91590000  0.09470000  1.0 0.1233647844
H  H30  1  0.08410000  0.64330000  0.09470000  1.0 0.1233647844
H  H31  1  0.55920000  0.64330000  0.40530000  1.0 0.1233647844
H  H32  1  0.08410000  0.44080000  0.40530000  1.0 0.1233647844
H  H33  1  0.35670000  0.91590000  0.40530000  1.0 0.1233647844
H  H34  1  0.44080000  0.35670000  0.90530000  1.0 0.1233647844
H  H35  1  0.91590000  0.55920000  0.90530000  1.0 0.1233647844
H  H36  1  0.64330000  0.08410000  0.90530000  1.0 0.1233647844
H  H37  1  0.35670000  0.44080000  0.40530000  1.0 0.1233647844
H  H38  1  0.55920000  0.91590000  0.40530000  1.0 0.1233647844
H  H39  1  0.08410000  0.64330000  0.40530000  1.0 0.1233647844
H  H40  1  0.64330000  0.55920000  0.90530000  1.0 0.1233647844
H  H41  1  0.44080000  0.08410000  0.90530000  1.0 0.1233647844
H  H42  1  0.91590000  0.35670000  0.90530000  1.0 0.1233647844
H  H43  1  0.44080000  0.35670000  0.59470000  1.0 0.1233647844
H  H44  1  0.91590000  0.55920000  0.59470000  1.0 0.1233647844
H  H45  1  0.64330000  0.08410000  0.59470000  1.0 0.1233647844
H  H46  1  0.55920000  0.64330000  0.09470000  1.0 0.1233647844
H  H47  1  0.08410000  0.44080000  0.09470000  1.0 0.1233647844
H  H48  1  0.35670000  0.91590000  0.09470000  1.0 0.1233647844
H  H49  1  0.73880000  0.61090000  0.41210000  1.0 0.1472432148
H  H50  1  0.38910000  0.12790000  0.41210000  1.0 0.1472432148
H  H51  1  0.87210000  0.26120000  0.41210000  1.0 0.1472432148
H  H52  1  0.26120000  0.38910000  0.91210000  1.0 0.1472432148
H  H53  1  0.61090000  0.87210000  0.91210000  1.0 0.1472432148
H  H54  1  0.12790000  0.73880000  0.91210000  1.0 0.1472432148
H  H55  1  0.61090000  0.73880000  0.58790000  1.0 0.1472432148
H  H56  1  0.12790000  0.38910000  0.58790000  1.0 0.1472432148
H  H57  1  0.26120000  0.87210000  0.58790000  1.0 0.1472432148
H  H58  1  0.38910000  0.26120000  0.08790000  1.0 0.1472432148
H  H59  1  0.87210000  0.61090000  0.08790000  1.0 0.1472432148
H  H60  1  0.73880000  0.12790000  0.08790000  1.0 0.1472432148
H  H61  1  0.26120000  0.38910000  0.58790000  1.0 0.1472432148
H  H62  1  0.61090000  0.87210000  0.58790000  1.0 0.1472432148
H  H63  1  0.12790000  0.73880000  0.58790000  1.0 0.1472432148
H  H64  1  0.73880000  0.61090000  0.08790000  1.0 0.1472432148
H  H65  1  0.38910000  0.12790000  0.08790000  1.0 0.1472432148
H  H66  1  0.87210000  0.26120000  0.08790000  1.0 0.1472432148
H  H67  1  0.38910000  0.26120000  0.41210000  1.0 0.1472432148
H  H68  1  0.87210000  0.61090000  0.41210000  1.0 0.1472432148
H  H69  1  0.73880000  0.12790000  0.41210000  1.0 0.1472432148
H  H70  1  0.61090000  0.73880000  0.91210000  1.0 0.1472432148
H  H71  1  0.12790000  0.38910000  0.91210000  1.0 0.1472432148
H  H72  1  0.26120000  0.87210000  0.91210000  1.0 0.1472432148
C  C1  1  0.62468000  0.49684000  0.64184000  1.0 -0.1619143877
C  C2  1  0.50316000  0.12784000  0.64184000  1.0 -0.1619143877
C  C3  1  0.87216000  0.37532000  0.64184000  1.0 -0.1619143877
C  C4  1  0.37532000  0.50316000  0.14184000  1.0 -0.1619143877
C  C5  1  0.49684000  0.87216000  0.14184000  1.0 -0.1619143877
C  C6  1  0.12784000  0.62468000  0.14184000  1.0 -0.1619143877
C  C7  1  0.49684000  0.62468000  0.35816000  1.0 -0.1619143877
C  C8  1  0.12784000  0.50316000  0.35816000  1.0 -0.1619143877
C  C9  1  0.37532000  0.87216000  0.35816000  1.0 -0.1619143877
C  C10  1  0.50316000  0.37532000  0.85816000  1.0 -0.1619143877
C  C11  1  0.87216000  0.49684000  0.85816000  1.0 -0.1619143877
C  C12  1  0.62468000  0.12784000  0.85816000  1.0 -0.1619143877
C  C13  1  0.37532000  0.50316000  0.35816000  1.0 -0.1619143877
C  C14  1  0.49684000  0.87216000  0.35816000  1.0 -0.1619143877
C  C15  1  0.12784000  0.62468000  0.35816000  1.0 -0.1619143877
C  C16  1  0.62468000  0.49684000  0.85816000  1.0 -0.1619143877
C  C17  1  0.50316000  0.12784000  0.85816000  1.0 -0.1619143877
C  C18  1  0.87216000  0.37532000  0.85816000  1.0 -0.1619143877
C  C19  1  0.50316000  0.37532000  0.64184000  1.0 -0.1619143877
C  C20  1  0.87216000  0.49684000  0.64184000  1.0 -0.1619143877
C  C21  1  0.62468000  0.12784000  0.64184000  1.0 -0.1619143877
C  C22  1  0.49684000  0.62468000  0.14184000  1.0 -0.1619143877
C  C23  1  0.12784000  0.50316000  0.14184000  1.0 -0.1619143877
C  C24  1  0.37532000  0.87216000  0.14184000  1.0 -0.1619143877
C  C25  1  0.60656000  0.51055000  0.60657000  1.0 0.0826112237
C  C26  1  0.48945000  0.09601000  0.60657000  1.0 0.0826112237
C  C27  1  0.90399000  0.39344000  0.60657000  1.0 0.0826112237
C  C28  1  0.39344000  0.48945000  0.10657000  1.0 0.0826112237
C  C29  1  0.51055000  0.90399000  0.10657000  1.0 0.0826112237
C  C30  1  0.09601000  0.60656000  0.10657000  1.0 0.0826112237
C  C31  1  0.51055000  0.60656000  0.39343000  1.0 0.0826112237
C  C32  1  0.09601000  0.48945000  0.39343000  1.0 0.0826112237
C  C33  1  0.39344000  0.90399000  0.39343000  1.0 0.0826112237
C  C34  1  0.48945000  0.39344000  0.89343000  1.0 0.0826112237
C  C35  1  0.90399000  0.51055000  0.89343000  1.0 0.0826112237
C  C36  1  0.60656000  0.09601000  0.89343000  1.0 0.0826112237
C  C37  1  0.39344000  0.48945000  0.39343000  1.0 0.0826112237
C  C38  1  0.51055000  0.90399000  0.39343000  1.0 0.0826112237
C  C39  1  0.09601000  0.60656000  0.39343000  1.0 0.0826112237
C  C40  1  0.60656000  0.51055000  0.89343000  1.0 0.0826112237
C  C41  1  0.48945000  0.09601000  0.89343000  1.0 0.0826112237
C  C42  1  0.90399000  0.39344000  0.89343000  1.0 0.0826112237
C  C43  1  0.48945000  0.39344000  0.60657000  1.0 0.0826112237
C  C44  1  0.90399000  0.51055000  0.60657000  1.0 0.0826112237
C  C45  1  0.60656000  0.09601000  0.60657000  1.0 0.0826112237
C  C46  1  0.51055000  0.60656000  0.10657000  1.0 0.0826112237
C  C47  1  0.09601000  0.48945000  0.10657000  1.0 0.0826112237
C  C48  1  0.39344000  0.90399000  0.10657000  1.0 0.0826112237
C  C49  1  0.59276000  0.40724000  0.69661000  1.0 0.597806206
C  C50  1  0.59276000  0.18552000  0.69661000  1.0 0.597806206
C  C51  1  0.81448000  0.40724000  0.69661000  1.0 0.597806206
C  C52  1  0.40724000  0.59276000  0.19661000  1.0 0.597806206
C  C53  1  0.40724000  0.81448000  0.19661000  1.0 0.597806206
C  C54  1  0.18552000  0.59276000  0.19661000  1.0 0.597806206
C  C55  1  0.40724000  0.59276000  0.30339000  1.0 0.597806206
C  C56  1  0.18552000  0.59276000  0.30339000  1.0 0.597806206
C  C57  1  0.40724000  0.81448000  0.30339000  1.0 0.597806206
C  C58  1  0.59276000  0.40724000  0.80339000  1.0 0.597806206
C  C59  1  0.81448000  0.40724000  0.80339000  1.0 0.597806206
C  C60  1  0.59276000  0.18552000  0.80339000  1.0 0.597806206
C  C61  1  0.57205000  0.42795000  0.65960000  1.0 0.0524982338
C  C62  1  0.57205000  0.14410000  0.65960000  1.0 0.0524982338
C  C63  1  0.85590000  0.42795000  0.65960000  1.0 0.0524982338
C  C64  1  0.42795000  0.57205000  0.15960000  1.0 0.0524982338
C  C65  1  0.42795000  0.85590000  0.15960000  1.0 0.0524982338
C  C66  1  0.14410000  0.57205000  0.15960000  1.0 0.0524982338
C  C67  1  0.42795000  0.57205000  0.34040000  1.0 0.0524982338
C  C68  1  0.14410000  0.57205000  0.34040000  1.0 0.0524982338
C  C69  1  0.42795000  0.85590000  0.34040000  1.0 0.0524982338
C  C70  1  0.57205000  0.42795000  0.84040000  1.0 0.0524982338
C  C71  1  0.85590000  0.42795000  0.84040000  1.0 0.0524982338
C  C72  1  0.57205000  0.14410000  0.84040000  1.0 0.0524982338
C  C73  1  0.64443000  0.54264000  0.47909000  1.0 0.5474385576
C  C74  1  0.45736000  0.10179000  0.47909000  1.0 0.5474385576
C  C75  1  0.89821000  0.35557000  0.47909000  1.0 0.5474385576
C  C76  1  0.35557000  0.45736000  0.97909000  1.0 0.5474385576
C  C77  1  0.54264000  0.89821000  0.97909000  1.0 0.5474385576
C  C78  1  0.10179000  0.64443000  0.97909000  1.0 0.5474385576
C  C79  1  0.54264000  0.64443000  0.52091000  1.0 0.5474385576
C  C80  1  0.10179000  0.45736000  0.52091000  1.0 0.5474385576
C  C81  1  0.35557000  0.89821000  0.52091000  1.0 0.5474385576
C  C82  1  0.45736000  0.35557000  0.02091000  1.0 0.5474385576
C  C83  1  0.89821000  0.54264000  0.02091000  1.0 0.5474385576
C  C84  1  0.64443000  0.10179000  0.02091000  1.0 0.5474385576
C  C85  1  0.35557000  0.45736000  0.52091000  1.0 0.5474385576
C  C86  1  0.54264000  0.89821000  0.52091000  1.0 0.5474385576
C  C87  1  0.10179000  0.64443000  0.52091000  1.0 0.5474385576
C  C88  1  0.64443000  0.54264000  0.02091000  1.0 0.5474385576
C  C89  1  0.45736000  0.10179000  0.02091000  1.0 0.5474385576
C  C90  1  0.89821000  0.35557000  0.02091000  1.0 0.5474385576
C  C91  1  0.45736000  0.35557000  0.47909000  1.0 0.5474385576
C  C92  1  0.89821000  0.54264000  0.47909000  1.0 0.5474385576
C  C93  1  0.64443000  0.10179000  0.47909000  1.0 0.5474385576
C  C94  1  0.54264000  0.64443000  0.97909000  1.0 0.5474385576
C  C95  1  0.10179000  0.45736000  0.97909000  1.0 0.5474385576
C  C96  1  0.35557000  0.89821000  0.97909000  1.0 0.5474385576
C  C97  1  0.72317000  0.56137000  0.46364000  1.0 0.0524982338
C  C98  1  0.43863000  0.16180000  0.46364000  1.0 0.0524982338
C  C99  1  0.83820000  0.27683000  0.46364000  1.0 0.0524982338
C  C100  1  0.27683000  0.43863000  0.96364000  1.0 0.0524982338
C  C101  1  0.56137000  0.83820000  0.96364000  1.0 0.0524982338
C  C102  1  0.16180000  0.72317000  0.96364000  1.0 0.0524982338
C  C103  1  0.56137000  0.72317000  0.53636000  1.0 0.0524982338
C  C104  1  0.16180000  0.43863000  0.53636000  1.0 0.0524982338
C  C105  1  0.27683000  0.83820000  0.53636000  1.0 0.0524982338
C  C106  1  0.43863000  0.27683000  0.03636000  1.0 0.0524982338
C  C107  1  0.83820000  0.56137000  0.03636000  1.0 0.0524982338
C  C108  1  0.72317000  0.16180000  0.03636000  1.0 0.0524982338
C  C109  1  0.27683000  0.43863000  0.53636000  1.0 0.0524982338
C  C110  1  0.56137000  0.83820000  0.53636000  1.0 0.0524982338
C  C111  1  0.16180000  0.72317000  0.53636000  1.0 0.0524982338
C  C112  1  0.72317000  0.56137000  0.03636000  1.0 0.0524982338
C  C113  1  0.43863000  0.16180000  0.03636000  1.0 0.0524982338
C  C114  1  0.83820000  0.27683000  0.03636000  1.0 0.0524982338
C  C115  1  0.43863000  0.27683000  0.46364000  1.0 0.0524982338
C  C116  1  0.83820000  0.56137000  0.46364000  1.0 0.0524982338
C  C117  1  0.72317000  0.16180000  0.46364000  1.0 0.0524982338
C  C118  1  0.56137000  0.72317000  0.96364000  1.0 0.0524982338
C  C119  1  0.16180000  0.43863000  0.96364000  1.0 0.0524982338
C  C120  1  0.27683000  0.83820000  0.96364000  1.0 0.0524982338
C  C121  1  0.75908000  0.59260000  0.43114000  1.0 -0.1817837332
C  C122  1  0.40740000  0.16648000  0.43114000  1.0 -0.1817837332
C  C123  1  0.83352000  0.24092000  0.43114000  1.0 -0.1817837332
C  C124  1  0.24092000  0.40740000  0.93114000  1.0 -0.1817837332
C  C125  1  0.59260000  0.83352000  0.93114000  1.0 -0.1817837332
C  C126  1  0.16648000  0.75908000  0.93114000  1.0 -0.1817837332
C  C127  1  0.59260000  0.75908000  0.56886000  1.0 -0.1817837332
C  C128  1  0.16648000  0.40740000  0.56886000  1.0 -0.1817837332
C  C129  1  0.24092000  0.83352000  0.56886000  1.0 -0.1817837332
C  C130  1  0.40740000  0.24092000  0.06886000  1.0 -0.1817837332
C  C131  1  0.83352000  0.59260000  0.06886000  1.0 -0.1817837332
C  C132  1  0.75908000  0.16648000  0.06886000  1.0 -0.1817837332
C  C133  1  0.24092000  0.40740000  0.56886000  1.0 -0.1817837332
C  C134  1  0.59260000  0.83352000  0.56886000  1.0 -0.1817837332
C  C135  1  0.16648000  0.75908000  0.56886000  1.0 -0.1817837332
C  C136  1  0.75908000  0.59260000  0.06886000  1.0 -0.1817837332
C  C137  1  0.40740000  0.16648000  0.06886000  1.0 -0.1817837332
C  C138  1  0.83352000  0.24092000  0.06886000  1.0 -0.1817837332
C  C139  1  0.40740000  0.24092000  0.43114000  1.0 -0.1817837332
C  C140  1  0.83352000  0.59260000  0.43114000  1.0 -0.1817837332
C  C141  1  0.75908000  0.16648000  0.43114000  1.0 -0.1817837332
C  C142  1  0.59260000  0.75908000  0.93114000  1.0 -0.1817837332
C  C143  1  0.16648000  0.40740000  0.93114000  1.0 -0.1817837332
C  C144  1  0.24092000  0.83352000  0.93114000  1.0 -0.1817837332
C  C145  1  0.37940000  0.18970000  0.72840000  1.0 -0.0129248945
C  C146  1  0.81030000  0.18970000  0.72840000  1.0 -0.0129248945
C  C147  1  0.81030000  0.62060000  0.72840000  1.0 -0.0129248945
C  C148  1  0.62060000  0.81030000  0.22840000  1.0 -0.0129248945
C  C149  1  0.18970000  0.81030000  0.22840000  1.0 -0.0129248945
C  C150  1  0.18970000  0.37940000  0.22840000  1.0 -0.0129248945
C  C151  1  0.18970000  0.37940000  0.27160000  1.0 -0.0129248945
C  C152  1  0.18970000  0.81030000  0.27160000  1.0 -0.0129248945
C  C153  1  0.62060000  0.81030000  0.27160000  1.0 -0.0129248945
C  C154  1  0.81030000  0.62060000  0.77160000  1.0 -0.0129248945
C  C155  1  0.81030000  0.18970000  0.77160000  1.0 -0.0129248945
C  C156  1  0.37940000  0.18970000  0.77160000  1.0 -0.0129248945
C  C157  1  0.39200000  0.24800000  0.75000000  1.0 -0.0738260392
C  C158  1  0.75200000  0.14400000  0.75000000  1.0 -0.0738260392
C  C159  1  0.85600000  0.60800000  0.75000000  1.0 -0.0738260392
C  C160  1  0.60800000  0.75200000  0.25000000  1.0 -0.0738260392
C  C161  1  0.24800000  0.85600000  0.25000000  1.0 -0.0738260392
C  C162  1  0.14400000  0.39200000  0.25000000  1.0 -0.0738260392
C  C163  1  0.24800000  0.39200000  0.25000000  1.0 -0.0738260392
C  C164  1  0.14400000  0.75200000  0.25000000  1.0 -0.0738260392
C  C165  1  0.60800000  0.85600000  0.25000000  1.0 -0.0738260392
C  C166  1  0.75200000  0.60800000  0.75000000  1.0 -0.0738260392
C  C167  1  0.85600000  0.24800000  0.75000000  1.0 -0.0738260392
C  C168  1  0.39200000  0.14400000  0.75000000  1.0 -0.0738260392
N  N1  1  0.54088000  0.45912000  0.58897000  1.0 -0.1927042808
N  N2  1  0.54088000  0.08176000  0.58897000  1.0 -0.1927042808
N  N3  1  0.91824000  0.45912000  0.58897000  1.0 -0.1927042808
N  N4  1  0.45912000  0.54088000  0.08897000  1.0 -0.1927042808
N  N5  1  0.45912000  0.91824000  0.08897000  1.0 -0.1927042808
N  N6  1  0.08176000  0.54088000  0.08897000  1.0 -0.1927042808
N  N7  1  0.45912000  0.54088000  0.41103000  1.0 -0.1927042808
N  N8  1  0.08176000  0.54088000  0.41103000  1.0 -0.1927042808
N  N9  1  0.45912000  0.91824000  0.41103000  1.0 -0.1927042808
N  N10  1  0.54088000  0.45912000  0.91103000  1.0 -0.1927042808
N  N11  1  0.91824000  0.45912000  0.91103000  1.0 -0.1927042808
N  N12  1  0.54088000  0.08176000  0.91103000  1.0 -0.1927042808
O  O1  1  0.66666667  0.33333333  0.75000000  1.0 -0.9800859783
O  O2  1  0.33333333  0.66666667  0.25000000  1.0 -0.9800859783
O  O3  1  0.42907000  0.21454000  0.75000000  1.0 -0.0208618787
O  O4  1  0.78546000  0.21454000  0.75000000  1.0 -0.0208618787
O  O5  1  0.78547000  0.57093000  0.75000000  1.0 -0.0208618787
O  O6  1  0.57093000  0.78546000  0.25000000  1.0 -0.0208618787
O  O7  1  0.21454000  0.78546000  0.25000000  1.0 -0.0208618787
O  O8  1  0.21454000  0.42907000  0.25000000  1.0 -0.0208618787
O  O9  1  0.54139000  0.34094000  0.71038000  1.0 -0.5305063222
O  O10  1  0.65906000  0.20045000  0.71038000  1.0 -0.5305063222
O  O11  1  0.79955000  0.45861000  0.71038000  1.0 -0.5305063222
O  O12  1  0.45861000  0.65906000  0.21038000  1.0 -0.5305063222
O  O13  1  0.34094000  0.79955000  0.21038000  1.0 -0.5305063222
O  O14  1  0.20045000  0.54139000  0.21038000  1.0 -0.5305063222
O  O15  1  0.34094000  0.54139000  0.28962000  1.0 -0.5305063222
O  O16  1  0.20045000  0.65906000  0.28962000  1.0 -0.5305063222
O  O17  1  0.45861000  0.79955000  0.28962000  1.0 -0.5305063222
O  O18  1  0.65906000  0.45861000  0.78962000  1.0 -0.5305063222
O  O19  1  0.79955000  0.34094000  0.78962000  1.0 -0.5305063222
O  O20  1  0.54139000  0.20045000  0.78962000  1.0 -0.5305063222
O  O21  1  0.45861000  0.65906000  0.28962000  1.0 -0.5305063222
O  O22  1  0.34094000  0.79955000  0.28962000  1.0 -0.5305063222
O  O23  1  0.20045000  0.54139000  0.28962000  1.0 -0.5305063222
O  O24  1  0.54139000  0.34094000  0.78962000  1.0 -0.5305063222
O  O25  1  0.65906000  0.20045000  0.78962000  1.0 -0.5305063222
O  O26  1  0.79955000  0.45861000  0.78962000  1.0 -0.5305063222
O  O27  1  0.65906000  0.45861000  0.71038000  1.0 -0.5305063222
O  O28  1  0.79955000  0.34094000  0.71038000  1.0 -0.5305063222
O  O29  1  0.54139000  0.20045000  0.71038000  1.0 -0.5305063222
O  O30  1  0.34094000  0.54139000  0.21038000  1.0 -0.5305063222
O  O31  1  0.20045000  0.65906000  0.21038000  1.0 -0.5305063222
O  O32  1  0.45861000  0.79955000  0.21038000  1.0 -0.5305063222
O  O33  1  0.77118000  0.54236000  0.48449000  1.0 -0.0971442033
O  O34  1  0.45764000  0.22882000  0.48449000  1.0 -0.0971442033
O  O35  1  0.77118000  0.22882000  0.48449000  1.0 -0.0971442033
O  O36  1  0.22882000  0.45764000  0.98449000  1.0 -0.0971442033
O  O37  1  0.54236000  0.77118000  0.98449000  1.0 -0.0971442033
O  O38  1  0.22882000  0.77118000  0.98449000  1.0 -0.0971442033
O  O39  1  0.54236000  0.77118000  0.51551000  1.0 -0.0971442033
O  O40  1  0.22882000  0.45764000  0.51551000  1.0 -0.0971442033
O  O41  1  0.22882000  0.77118000  0.51551000  1.0 -0.0971442033
O  O42  1  0.45764000  0.22882000  0.01551000  1.0 -0.0971442033
O  O43  1  0.77118000  0.54236000  0.01551000  1.0 -0.0971442033
O  O44  1  0.77118000  0.22882000  0.01551000  1.0 -0.0971442033
O  O45  1  0.62861000  0.51814000  0.51143000  1.0 -0.5042561485
O  O46  1  0.48186000  0.11047000  0.51143000  1.0 -0.5042561485
O  O47  1  0.88953000  0.37139000  0.51143000  1.0 -0.5042561485
O  O48  1  0.37139000  0.48186000  0.01143000  1.0 -0.5042561485
O  O49  1  0.51814000  0.88953000  0.01143000  1.0 -0.5042561485
O  O50  1  0.11047000  0.62861000  0.01143000  1.0 -0.5042561485
O  O51  1  0.51814000  0.62861000  0.48857000  1.0 -0.5042561485
O  O52  1  0.11047000  0.48186000  0.48857000  1.0 -0.5042561485
O  O53  1  0.37139000  0.88953000  0.48857000  1.0 -0.5042561485
O  O54  1  0.48186000  0.37139000  0.98857000  1.0 -0.5042561485
O  O55  1  0.88953000  0.51814000  0.98857000  1.0 -0.5042561485
O  O56  1  0.62861000  0.11047000  0.98857000  1.0 -0.5042561485
O  O57  1  0.37139000  0.48186000  0.48857000  1.0 -0.5042561485
O  O58  1  0.51814000  0.88953000  0.48857000  1.0 -0.5042561485
O  O59  1  0.11047000  0.62861000  0.48857000  1.0 -0.5042561485
O  O60  1  0.62861000  0.51814000  0.98857000  1.0 -0.5042561485
O  O61  1  0.48186000  0.11047000  0.98857000  1.0 -0.5042561485
O  O62  1  0.88953000  0.37139000  0.98857000  1.0 -0.5042561485
O  O63  1  0.48186000  0.37139000  0.51143000  1.0 -0.5042561485
O  O64  1  0.88953000  0.51814000  0.51143000  1.0 -0.5042561485
O  O65  1  0.62861000  0.11047000  0.51143000  1.0 -0.5042561485
O  O66  1  0.51814000  0.62861000  0.01143000  1.0 -0.5042561485
O  O67  1  0.11047000  0.48186000  0.01143000  1.0 -0.5042561485
O  O68  1  0.37139000  0.88953000  0.01143000  1.0 -0.5042561485
O  O69  1  0.59899000  0.55247000  0.45720000  1.0 -0.5305063222
O  O70  1  0.44753000  0.04652000  0.45720000  1.0 -0.5305063222
O  O71  1  0.95348000  0.40101000  0.45720000  1.0 -0.5305063222
O  O72  1  0.40101000  0.44753000  0.95720000  1.0 -0.5305063222
O  O73  1  0.55247000  0.95348000  0.95720000  1.0 -0.5305063222
O  O74  1  0.04652000  0.59899000  0.95720000  1.0 -0.5305063222
O  O75  1  0.55247000  0.59899000  0.54280000  1.0 -0.5305063222
O  O76  1  0.04652000  0.44753000  0.54280000  1.0 -0.5305063222
O  O77  1  0.40101000  0.95348000  0.54280000  1.0 -0.5305063222
O  O78  1  0.44753000  0.40101000  0.04280000  1.0 -0.5305063222
O  O79  1  0.95348000  0.55247000  0.04280000  1.0 -0.5305063222
O  O80  1  0.59899000  0.04652000  0.04280000  1.0 -0.5305063222
O  O81  1  0.40101000  0.44753000  0.54280000  1.0 -0.5305063222
O  O82  1  0.55247000  0.95348000  0.54280000  1.0 -0.5305063222
O  O83  1  0.04652000  0.59899000  0.54280000  1.0 -0.5305063222
O  O84  1  0.59899000  0.55247000  0.04280000  1.0 -0.5305063222
O  O85  1  0.44753000  0.04652000  0.04280000  1.0 -0.5305063222
O  O86  1  0.95348000  0.40101000  0.04280000  1.0 -0.5305063222
O  O87  1  0.44753000  0.40101000  0.45720000  1.0 -0.5305063222
O  O88  1  0.95348000  0.55247000  0.45720000  1.0 -0.5305063222
O  O89  1  0.59899000  0.04652000  0.45720000  1.0 -0.5305063222
O  O90  1  0.55247000  0.59899000  0.95720000  1.0 -0.5305063222
O  O91  1  0.04652000  0.44753000  0.95720000  1.0 -0.5305063222
O  O92  1  0.40101000  0.95348000  0.95720000  1.0 -0.5305063222
