# DDEC6 charges by PACMAN v1.1 (https://github.com/mtap-research/PACMAN-charge/)
data_YIMQIY_ASR_pacman
_symmetry_space_group_name_H-M   'P 1'
_cell_length_a   10.18760000
_cell_length_b   10.18760000
_cell_length_c   14.46750000
_cell_angle_alpha   90.00000000
_cell_angle_beta   90.00000000
_cell_angle_gamma   90.00000000
_symmetry_Int_Tables_number   1
_chemical_formula_structural   DyH3C9O10
_chemical_formula_sum   'Dy4 H12 C36 O40'
_cell_volume   1501.54122572
_cell_formula_units_Z   4
loop_
 _symmetry_equiv_pos_site_id
 _symmetry_equiv_pos_as_xyz
  1  'x, y, z'
loop_
 _atom_site_type_symbol
 _atom_site_label
 _atom_site_symmetry_multiplicity
 _atom_site_fract_x
 _atom_site_fract_y
 _atom_site_fract_z
 _atom_site_occupancy
 _atom_site_charge
Dy  Dy1  1  0.64968000  0.64968000  0.62500000  1.0 1.6082766243
Dy  Dy2  1  0.35032000  0.35032000  0.12500000  1.0 1.6082766243
Dy  Dy3  1  0.35032000  0.64968000  0.37500000  1.0 1.6082766243
Dy  Dy4  1  0.64968000  0.35032000  0.87500000  1.0 1.6082766243
H  H1  1  0.05906000  0.57294000  0.62090000  1.0 0.1238707342
H  H2  1  0.94094000  0.42706000  0.12090000  1.0 0.1238707342
H  H3  1  0.42706000  0.05906000  0.37090000  1.0 0.1238707342
H  H4  1  0.57294000  0.94094000  0.87090000  1.0 0.1238707342
H  H5  1  0.94094000  0.57294000  0.37910000  1.0 0.1238707342
H  H6  1  0.05906000  0.42706000  0.87910000  1.0 0.1238707342
H  H7  1  0.57294000  0.05906000  0.62910000  1.0 0.1238707342
H  H8  1  0.42706000  0.94094000  0.12910000  1.0 0.1238707342
H  H9  1  0.39740000  0.50000000  0.75000000  1.0 0.0709325095
H  H10  1  0.60260000  0.50000000  0.25000000  1.0 0.0709325095
H  H11  1  0.50000000  0.39740000  0.50000000  1.0 0.0709325095
H  H12  1  0.50000000  0.60260000  0.00000000  1.0 0.0709325095
C  C1  1  0.31540000  0.58860000  0.58980000  1.0 0.529865522
C  C2  1  0.68460000  0.41140000  0.08980000  1.0 0.529865522
C  C3  1  0.41140000  0.31540000  0.33980000  1.0 0.529865522
C  C4  1  0.58860000  0.68460000  0.83980000  1.0 0.529865522
C  C5  1  0.68460000  0.58860000  0.41020000  1.0 0.529865522
C  C6  1  0.31540000  0.41140000  0.91020000  1.0 0.529865522
C  C7  1  0.58860000  0.31540000  0.66020000  1.0 0.529865522
C  C8  1  0.41140000  0.68460000  0.16020000  1.0 0.529865522
C  C9  1  0.23970000  0.54390000  0.67290000  1.0 -0.0413092484
C  C10  1  0.76030000  0.45610000  0.17290000  1.0 -0.0413092484
C  C11  1  0.45610000  0.23970000  0.42290000  1.0 -0.0413092484
C  C12  1  0.54390000  0.76030000  0.92290000  1.0 -0.0413092484
C  C13  1  0.76030000  0.54390000  0.32710000  1.0 -0.0413092484
C  C14  1  0.23970000  0.45610000  0.82710000  1.0 -0.0413092484
C  C15  1  0.54390000  0.23970000  0.57710000  1.0 -0.0413092484
C  C16  1  0.45610000  0.76030000  0.07710000  1.0 -0.0413092484
C  C17  1  0.10470000  0.54380000  0.67260000  1.0 -0.1359346937
C  C18  1  0.89530000  0.45620000  0.17260000  1.0 -0.1359346937
C  C19  1  0.45620000  0.10470000  0.42260000  1.0 -0.1359346937
C  C20  1  0.54380000  0.89530000  0.92260000  1.0 -0.1359346937
C  C21  1  0.89530000  0.54380000  0.32740000  1.0 -0.1359346937
C  C22  1  0.10470000  0.45620000  0.82740000  1.0 -0.1359346937
C  C23  1  0.54380000  0.10470000  0.57740000  1.0 -0.1359346937
C  C24  1  0.45620000  0.89530000  0.07740000  1.0 -0.1359346937
C  C25  1  0.88770000  0.50000000  0.75000000  1.0 0.4699316808
C  C26  1  0.11230000  0.50000000  0.25000000  1.0 0.4699316808
C  C27  1  0.50000000  0.88770000  0.50000000  1.0 0.4699316808
C  C28  1  0.50000000  0.11230000  0.00000000  1.0 0.4699316808
C  C29  1  0.30610000  0.50000000  0.75000000  1.0 -0.2177541367
C  C30  1  0.69390000  0.50000000  0.25000000  1.0 -0.2177541367
C  C31  1  0.50000000  0.30610000  0.50000000  1.0 -0.2177541367
C  C32  1  0.50000000  0.69390000  0.00000000  1.0 -0.2149094603
C  C33  1  0.03680000  0.50000000  0.75000000  1.0 -0.0283360608
C  C34  1  0.96320000  0.50000000  0.25000000  1.0 -0.0283360608
C  C35  1  0.50000000  0.03680000  0.50000000  1.0 -0.0283360608
C  C36  1  0.50000000  0.96320000  0.00000000  1.0 -0.0222945739
O  O1  1  0.25930000  0.59580000  0.51490000  1.0 -0.5921348519
O  O2  1  0.74070000  0.40420000  0.01490000  1.0 -0.5921348519
O  O3  1  0.40420000  0.25930000  0.26490000  1.0 -0.5921348519
O  O4  1  0.59580000  0.74070000  0.76490000  1.0 -0.5921348519
O  O5  1  0.74070000  0.59580000  0.48510000  1.0 -0.5921348519
O  O6  1  0.25930000  0.40420000  0.98510000  1.0 -0.5921348519
O  O7  1  0.59580000  0.25930000  0.73510000  1.0 -0.5921348519
O  O8  1  0.40420000  0.74070000  0.23510000  1.0 -0.5921348519
O  O9  1  0.43400000  0.58890000  0.59000000  1.0 -0.1976471096
O  O10  1  0.56600000  0.41110000  0.09000000  1.0 -0.1976471096
O  O11  1  0.41110000  0.43400000  0.34000000  1.0 -0.1976471096
O  O12  1  0.58890000  0.56600000  0.84000000  1.0 -0.1976471096
O  O13  1  0.56600000  0.58890000  0.41000000  1.0 -0.1976471096
O  O14  1  0.43400000  0.41110000  0.91000000  1.0 -0.1976471096
O  O15  1  0.58890000  0.43400000  0.66000000  1.0 -0.1976471096
O  O16  1  0.41110000  0.56600000  0.16000000  1.0 -0.1976471096
O  O17  1  0.83210000  0.54830000  0.68020000  1.0 -0.1976471096
O  O18  1  0.16790000  0.45170000  0.18020000  1.0 -0.1976471096
O  O19  1  0.45170000  0.83210000  0.43020000  1.0 -0.1976471096
O  O20  1  0.54830000  0.16790000  0.93020000  1.0 -0.1976471096
O  O21  1  0.16790000  0.54830000  0.31980000  1.0 -0.1976471096
O  O22  1  0.83210000  0.45170000  0.81980000  1.0 -0.1976471096
O  O23  1  0.54830000  0.83210000  0.56980000  1.0 -0.1976471096
O  O24  1  0.45170000  0.16790000  0.06980000  1.0 -0.1976471096
O  O25  1  0.42480000  0.64200000  0.60870000  1.0 -0.2440522126
O  O26  1  0.57520000  0.35800000  0.10870000  1.0 -0.2440522126
O  O27  1  0.35800000  0.42480000  0.35870000  1.0 -0.2440522126
O  O28  1  0.64200000  0.57520000  0.85870000  1.0 -0.2440522126
O  O29  1  0.57520000  0.64200000  0.39130000  1.0 -0.2440522126
O  O30  1  0.42480000  0.35800000  0.89130000  1.0 -0.2440522126
O  O31  1  0.64200000  0.42480000  0.64130000  1.0 -0.2440522126
O  O32  1  0.35800000  0.57520000  0.14130000  1.0 -0.2440522126
O  O33  1  0.83860000  0.59520000  0.70390000  1.0 -0.1976471096
O  O34  1  0.16140000  0.40480000  0.20390000  1.0 -0.1976471096
O  O35  1  0.40480000  0.83860000  0.45390000  1.0 -0.1976471096
O  O36  1  0.59520000  0.16140000  0.95390000  1.0 -0.1976471096
O  O37  1  0.16140000  0.59520000  0.29610000  1.0 -0.1976471096
O  O38  1  0.83860000  0.40480000  0.79610000  1.0 -0.1976471096
O  O39  1  0.59520000  0.83860000  0.54610000  1.0 -0.1976471096
O  O40  1  0.40480000  0.16140000  0.04610000  1.0 -0.1976471096
