# DDEC6 charges by PACMAN v1.1 (https://github.com/mtap-research/PACMAN-charge/)
data_YINCOP_ASR_pacman
_symmetry_space_group_name_H-M   'P 1'
_cell_length_a   17.44690000
_cell_length_b   17.44690000
_cell_length_c   9.38650000
_cell_angle_alpha   77.17680000
_cell_angle_beta   102.82300000
_cell_angle_gamma   104.36500000
_symmetry_Int_Tables_number   1
_chemical_formula_structural   Mn3H22(C21O8)2
_chemical_formula_sum   'Mn6 H44 C84 O32'
_cell_volume   2656.38351135
_cell_formula_units_Z   2
loop_
 _symmetry_equiv_pos_site_id
 _symmetry_equiv_pos_as_xyz
  1  'x, y, z'
loop_
 _atom_site_type_symbol
 _atom_site_label
 _atom_site_symmetry_multiplicity
 _atom_site_fract_x
 _atom_site_fract_y
 _atom_site_fract_z
 _atom_site_occupancy
 _atom_site_charge
Mn  Mn1  1  0.81322000  0.31852000  0.05933000  1.0 1.0381985422
Mn  Mn2  1  0.31852000  0.81322000  0.44067000  1.0 1.0381985422
Mn  Mn3  1  0.18678000  0.68148000  0.94067000  1.0 1.0381985422
Mn  Mn4  1  0.68148000  0.18678000  0.55933000  1.0 1.0381985422
Mn  Mn5  1  0.00000000  0.50000000  0.00000000  1.0 1.0635830875
Mn  Mn6  1  0.50000000  0.00000000  0.50000000  1.0 1.0635830875
H  H1  1  0.87580000  0.66240000  0.07400000  1.0 0.1428997247
H  H2  1  0.66240000  0.87580000  0.42600000  1.0 0.1428997247
H  H3  1  0.12420000  0.33760000  0.92600000  1.0 0.1428997247
H  H4  1  0.33760000  0.12420000  0.57400000  1.0 0.1428997247
H  H5  1  0.66130000  0.70990000  0.07070000  1.0 0.1492924358
H  H6  1  0.70990000  0.66130000  0.42930000  1.0 0.1492924358
H  H7  1  0.33870000  0.29010000  0.92930000  1.0 0.1492924358
H  H8  1  0.29010000  0.33870000  0.57070000  1.0 0.1492924358
H  H9  1  0.46490000  0.58610000  0.17930000  1.0 0.1303726339
H  H10  1  0.58610000  0.46490000  0.32070000  1.0 0.1303726339
H  H11  1  0.53510000  0.41390000  0.82070000  1.0 0.1303726339
H  H12  1  0.41390000  0.53510000  0.67930000  1.0 0.1303726339
H  H13  1  0.36840000  0.66000000  0.06440000  1.0 0.1189738484
H  H14  1  0.66000000  0.36840000  0.43560000  1.0 0.1189738484
H  H15  1  0.63160000  0.34000000  0.93560000  1.0 0.1189738484
H  H16  1  0.34000000  0.63160000  0.56440000  1.0 0.1189738484
H  H17  1  0.46870000  0.72550000  0.69900000  1.0 0.1134490486
H  H18  1  0.72550000  0.46870000  0.80100000  1.0 0.1134490486
H  H19  1  0.53130000  0.27450000  0.30100000  1.0 0.1134490486
H  H20  1  0.27450000  0.53130000  0.19900000  1.0 0.1134490486
H  H21  1  0.66000000  0.89420000  0.67450000  1.0 0.1189738484
H  H22  1  0.89420000  0.66000000  0.82550000  1.0 0.1189738484
H  H23  1  0.34000000  0.10580000  0.32550000  1.0 0.1189738484
H  H24  1  0.10580000  0.34000000  0.17450000  1.0 0.1189738484
H  H25  1  0.56520000  0.65200000  0.81230000  1.0 0.1303726339
H  H26  1  0.65200000  0.56520000  0.68770000  1.0 0.1303726339
H  H27  1  0.43480000  0.34800000  0.18770000  1.0 0.1303726339
H  H28  1  0.34800000  0.43480000  0.31230000  1.0 0.1303726339
H  H29  1  0.77920000  0.02300000  0.98420000  1.0 0.1303726339
H  H30  1  0.02300000  0.77920000  0.51580000  1.0 0.1303726339
H  H31  1  0.22080000  0.97700000  0.01580000  1.0 0.1303726339
H  H32  1  0.97700000  0.22080000  0.48420000  1.0 0.1303726339
H  H33  1  0.68070000  0.48390000  0.08510000  1.0 0.1428997247
H  H34  1  0.48390000  0.68070000  0.41490000  1.0 0.1428997247
H  H35  1  0.31930000  0.51610000  0.91490000  1.0 0.1428997247
H  H36  1  0.51610000  0.31930000  0.58510000  1.0 0.1428997247
H  H37  1  0.82520000  0.91240000  0.12990000  1.0 0.1428997247
H  H38  1  0.91240000  0.82520000  0.37010000  1.0 0.1428997247
H  H39  1  0.17480000  0.08760000  0.87010000  1.0 0.1428997247
H  H40  1  0.08760000  0.17480000  0.62990000  1.0 0.1428997247
H  H41  1  0.70860000  0.78500000  0.81080000  1.0 0.1189738484
H  H42  1  0.78500000  0.70860000  0.68920000  1.0 0.1189738484
H  H43  1  0.29140000  0.21500000  0.18920000  1.0 0.1189738484
H  H44  1  0.21500000  0.29140000  0.31080000  1.0 0.1189738484
C  C1  1  0.78568000  0.56404000  0.07870000  1.0 0.0101816611
C  C2  1  0.56404000  0.78568000  0.42130000  1.0 0.0101816611
C  C3  1  0.21432000  0.43596000  0.92130000  1.0 0.0101816611
C  C4  1  0.43596000  0.21432000  0.57870000  1.0 0.0101816611
C  C5  1  0.83450000  0.50370000  0.07920000  1.0 0.5877120014
C  C6  1  0.50370000  0.83450000  0.42080000  1.0 0.5877120014
C  C7  1  0.16550000  0.49630000  0.92080000  1.0 0.5877120014
C  C8  1  0.49630000  0.16550000  0.57920000  1.0 0.5877120014
C  C9  1  0.82087000  0.64483000  0.07330000  1.0 -0.2260908667
C  C10  1  0.64483000  0.82087000  0.42670000  1.0 -0.2260908667
C  C11  1  0.17913000  0.35517000  0.92670000  1.0 -0.2260908667
C  C12  1  0.35517000  0.17913000  0.57330000  1.0 -0.2260908667
C  C13  1  0.52436000  0.61216000  0.00690000  1.0 0.2465525981
C  C14  1  0.61216000  0.52436000  0.49310000  1.0 0.2465525981
C  C15  1  0.47564000  0.38784000  0.99310000  1.0 0.2465525981
C  C16  1  0.38784000  0.47564000  0.50690000  1.0 0.2465525981
C  C17  1  0.68918000  0.04502000  0.72010000  1.0 0.5653199669
C  C18  1  0.04502000  0.68918000  0.77990000  1.0 0.5653199669
C  C19  1  0.31082000  0.95498000  0.27990000  1.0 0.5653199669
C  C20  1  0.95498000  0.31082000  0.22010000  1.0 0.56481595
C  C21  1  0.40794000  0.69868000  0.86950000  1.0 -0.037234876
C  C22  1  0.69868000  0.40794000  0.63050000  1.0 -0.037234876
C  C23  1  0.59206000  0.30132000  0.13050000  1.0 -0.037234876
C  C24  1  0.30132000  0.59206000  0.36950000  1.0 -0.037234876
C  C25  1  0.69249000  0.67371000  0.07050000  1.0 -0.3316677992
C  C26  1  0.67371000  0.69249000  0.42950000  1.0 -0.3316677992
C  C27  1  0.30751000  0.32629000  0.92950000  1.0 -0.3316677992
C  C28  1  0.32629000  0.30751000  0.57050000  1.0 -0.3316677992
C  C29  1  0.34326000  0.74394000  0.79190000  1.0 0.6071373637
C  C30  1  0.74394000  0.34326000  0.70810000  1.0 0.6071373637
C  C31  1  0.65674000  0.25606000  0.20810000  1.0 0.6071373637
C  C32  1  0.25606000  0.65674000  0.29190000  1.0 0.6071373637
C  C33  1  0.46543000  0.61409000  0.08270000  1.0 -0.2012961932
C  C34  1  0.61409000  0.46543000  0.41730000  1.0 -0.2012961932
C  C35  1  0.53457000  0.38591000  0.91730000  1.0 -0.2012961932
C  C36  1  0.38591000  0.53457000  0.58270000  1.0 -0.2012961932
C  C37  1  0.77411000  0.69889000  0.06670000  1.0 0.2599854981
C  C38  1  0.69889000  0.77411000  0.43330000  1.0 0.2599854981
C  C39  1  0.22589000  0.30111000  0.93330000  1.0 0.2651658173
C  C40  1  0.30111000  0.22589000  0.56670000  1.0 0.2651658173
C  C41  1  0.40780000  0.65782000  0.01380000  1.0 -0.0809412987
C  C42  1  0.65782000  0.40780000  0.48620000  1.0 -0.0809412987
C  C43  1  0.59220000  0.34218000  0.98620000  1.0 -0.0809412987
C  C44  1  0.34218000  0.59220000  0.51380000  1.0 -0.0809412987
C  C45  1  0.46784000  0.69700000  0.79510000  1.0 -0.0809412987
C  C46  1  0.69700000  0.46784000  0.70490000  1.0 -0.0809412987
C  C47  1  0.53216000  0.30300000  0.20490000  1.0 -0.0809412987
C  C48  1  0.30300000  0.53216000  0.29510000  1.0 -0.0809412987
C  C49  1  0.65931000  0.59329000  0.07390000  1.0 0.2599854981
C  C50  1  0.59329000  0.65931000  0.42610000  1.0 0.2599854981
C  C51  1  0.34069000  0.40671000  0.92610000  1.0 0.2599854981
C  C52  1  0.40671000  0.34069000  0.57390000  1.0 0.2599854981
C  C53  1  0.69442000  0.89858000  0.76470000  1.0 -0.0809412987
C  C54  1  0.89858000  0.69442000  0.73530000  1.0 -0.0809412987
C  C55  1  0.30558000  0.10142000  0.23530000  1.0 -0.0809412987
C  C56  1  0.10142000  0.30558000  0.26470000  1.0 -0.0809412987
C  C57  1  0.71529000  0.97023000  0.81350000  1.0 -0.0236717106
C  C58  1  0.97023000  0.71529000  0.68650000  1.0 -0.0236717106
C  C59  1  0.28471000  0.02977000  0.18650000  1.0 -0.0236717106
C  C60  1  0.02977000  0.28471000  0.31350000  1.0 -0.0236717106
C  C61  1  0.52548000  0.65372000  0.86260000  1.0 -0.2205924183
C  C62  1  0.65372000  0.52548000  0.63740000  1.0 -0.2205924183
C  C63  1  0.47452000  0.34628000  0.13740000  1.0 -0.2205924183
C  C64  1  0.34628000  0.47452000  0.36260000  1.0 -0.2205924183
C  C65  1  0.76486000  0.97454000  0.94970000  1.0 -0.0809412987
C  C66  1  0.97454000  0.76486000  0.55030000  1.0 -0.0809412987
C  C67  1  0.23514000  0.02546000  0.05030000  1.0 -0.0809412987
C  C68  1  0.02546000  0.23514000  0.44970000  1.0 -0.0809412987
C  C69  1  0.70460000  0.53820000  0.08010000  1.0 -0.2205924183
C  C70  1  0.53820000  0.70460000  0.41990000  1.0 -0.2205924183
C  C71  1  0.29540000  0.46180000  0.91990000  1.0 -0.2205924183
C  C72  1  0.46180000  0.29540000  0.58010000  1.0 -0.2205924183
C  C73  1  0.79379000  0.90921000  0.03650000  1.0 -0.2012961932
C  C74  1  0.90921000  0.79379000  0.46350000  1.0 -0.2012961932
C  C75  1  0.20621000  0.09079000  0.96350000  1.0 -0.2012961932
C  C76  1  0.09079000  0.20621000  0.53650000  1.0 -0.2012961932
C  C77  1  0.77457000  0.83963000  0.98010000  1.0 0.2410689633
C  C78  1  0.83963000  0.77457000  0.51990000  1.0 0.2410689633
C  C79  1  0.22543000  0.16037000  0.01990000  1.0 0.2410689633
C  C80  1  0.16037000  0.22543000  0.48010000  1.0 0.2410689633
C  C81  1  0.72330000  0.83350000  0.84570000  1.0 -0.210599514
C  C82  1  0.83350000  0.72330000  0.65430000  1.0 -0.210599514
C  C83  1  0.27670000  0.16650000  0.15430000  1.0 -0.210599514
C  C84  1  0.16650000  0.27670000  0.34570000  1.0 -0.210599514
O  O1  1  0.80012000  0.43158000  0.09060000  1.0 -0.5535059903
O  O2  1  0.43158000  0.80012000  0.40940000  1.0 -0.5535059903
O  O3  1  0.19988000  0.56842000  0.90940000  1.0 -0.5535059903
O  O4  1  0.56842000  0.19988000  0.59060000  1.0 -0.5535059903
O  O5  1  0.28956000  0.74534000  0.85680000  1.0 -0.5387690548
O  O6  1  0.74534000  0.28956000  0.64320000  1.0 -0.5387690548
O  O7  1  0.71044000  0.25466000  0.14320000  1.0 -0.5387690548
O  O8  1  0.25466000  0.71044000  0.35680000  1.0 -0.5387690548
O  O9  1  0.71852000  0.11058000  0.76660000  1.0 -0.5216927861
O  O10  1  0.11058000  0.71852000  0.73340000  1.0 -0.5216927861
O  O11  1  0.28148000  0.88942000  0.23340000  1.0 -0.5216927861
O  O12  1  0.88942000  0.28148000  0.26660000  1.0 -0.5216927861
O  O13  1  0.64222000  0.04218000  0.59600000  1.0 -0.606517959
O  O14  1  0.04218000  0.64222000  0.90400000  1.0 -0.606517959
O  O15  1  0.35778000  0.95782000  0.40400000  1.0 -0.606517959
O  O16  1  0.95782000  0.35778000  0.09600000  1.0 -0.606517959
O  O17  1  0.90739000  0.53179000  0.06820000  1.0 -0.5708743964
O  O18  1  0.53179000  0.90739000  0.43180000  1.0 -0.5708743964
O  O19  1  0.09261000  0.46821000  0.93180000  1.0 -0.5708743964
O  O20  1  0.46821000  0.09261000  0.56820000  1.0 -0.5708743964
O  O21  1  0.34965000  0.78171000  0.66280000  1.0 -0.5805114989
O  O22  1  0.78171000  0.34965000  0.83720000  1.0 -0.5805114989
O  O23  1  0.65035000  0.21829000  0.33720000  1.0 -0.5805114989
O  O24  1  0.21829000  0.65035000  0.16280000  1.0 -0.5805114989
O  O25  1  0.81207000  0.77877000  0.06740000  1.0 -0.210599514
O  O26  1  0.77877000  0.81207000  0.43260000  1.0 -0.210599514
O  O27  1  0.18793000  0.22123000  0.93260000  1.0 -0.210599514
O  O28  1  0.22123000  0.18793000  0.56740000  1.0 -0.210599514
O  O29  1  0.57847000  0.56335000  0.07960000  1.0 -0.210599514
O  O30  1  0.56335000  0.57847000  0.42040000  1.0 -0.210599514
O  O31  1  0.42153000  0.43665000  0.92040000  1.0 -0.210599514
O  O32  1  0.43665000  0.42153000  0.57960000  1.0 -0.210599514
