# DDEC6 charges by PACMAN v1.1 (https://github.com/mtap-research/PACMAN-charge/)
data_YINCIJ_ASR_pacman
_symmetry_space_group_name_H-M   'P 1'
_cell_length_a   17.54660000
_cell_length_b   17.54660000
_cell_length_c   9.51500000
_cell_angle_alpha   77.22660000
_cell_angle_beta   102.77300000
_cell_angle_gamma   103.60400000
_symmetry_Int_Tables_number   1
_chemical_formula_structural   Mn3H22(C21O8)2
_chemical_formula_sum   'Mn6 H44 C84 O32'
_cell_volume   2732.31840530
_cell_formula_units_Z   2
loop_
 _symmetry_equiv_pos_site_id
 _symmetry_equiv_pos_as_xyz
  1  'x, y, z'
loop_
 _atom_site_type_symbol
 _atom_site_label
 _atom_site_symmetry_multiplicity
 _atom_site_fract_x
 _atom_site_fract_y
 _atom_site_fract_z
 _atom_site_occupancy
 _atom_site_charge
Mn  Mn1  1  0.68704000  0.17934000  0.43501000  1.0 1.0480973455
Mn  Mn2  1  0.17934000  0.68704000  0.06499000  1.0 1.0480973455
Mn  Mn3  1  0.31296000  0.82066000  0.56499000  1.0 1.0480973455
Mn  Mn4  1  0.82066000  0.31296000  0.93501000  1.0 1.0480973455
Mn  Mn5  1  0.50000000  0.00000000  0.50000000  1.0 1.0731501314
Mn  Mn6  1  0.00000000  0.50000000  0.00000000  1.0 1.0731501314
H  H1  1  0.39400000  0.15500000  0.32310000  1.0 0.1128218455
H  H2  1  0.15500000  0.39400000  0.17690000  1.0 0.1128218455
H  H3  1  0.60600000  0.84500000  0.67690000  1.0 0.1128218455
H  H4  1  0.84500000  0.60600000  0.82310000  1.0 0.1128218455
H  H5  1  0.52260000  0.27260000  0.01810000  1.0 0.1235449533
H  H6  1  0.27260000  0.52260000  0.48190000  1.0 0.1235449533
H  H7  1  0.47740000  0.72740000  0.98190000  1.0 0.1235449533
H  H8  1  0.72740000  0.47740000  0.51810000  1.0 0.1235449533
H  H9  1  0.16000000  0.86440000  0.94430000  1.0 0.1128218455
H  H10  1  0.86440000  0.16000000  0.55570000  1.0 0.1128218455
H  H11  1  0.84000000  0.13560000  0.05570000  1.0 0.1128218455
H  H12  1  0.13560000  0.84000000  0.44430000  1.0 0.1128218455
H  H13  1  0.21650000  0.96550000  0.30300000  1.0 0.1128218455
H  H14  1  0.96550000  0.21650000  0.19700000  1.0 0.1128218455
H  H15  1  0.78350000  0.03450000  0.69700000  1.0 0.1128218455
H  H16  1  0.03450000  0.78350000  0.80300000  1.0 0.1128218455
H  H17  1  0.98480000  0.17800000  0.91770000  1.0 0.1411681804
H  H18  1  0.17800000  0.98480000  0.58230000  1.0 0.1411681804
H  H19  1  0.01520000  0.82200000  0.08230000  1.0 0.1411681804
H  H20  1  0.82200000  0.01520000  0.41770000  1.0 0.1411681804
H  H21  1  0.16270000  0.36890000  0.93380000  1.0 0.1411681804
H  H22  1  0.36890000  0.16270000  0.56620000  1.0 0.1411681804
H  H23  1  0.83730000  0.63110000  0.06620000  1.0 0.1411681804
H  H24  1  0.63110000  0.83730000  0.43380000  1.0 0.1411681804
H  H25  1  0.08980000  0.96240000  0.82080000  1.0 0.1311574778
H  H26  1  0.96240000  0.08980000  0.67920000  1.0 0.1311574778
H  H27  1  0.91020000  0.03760000  0.17920000  1.0 0.1311574778
H  H28  1  0.03760000  0.91020000  0.32080000  1.0 0.1311574778
H  H29  1  0.41040000  0.31780000  0.86910000  1.0 0.1411681804
H  H30  1  0.31780000  0.41040000  0.63090000  1.0 0.1411681804
H  H31  1  0.58960000  0.68220000  0.13090000  1.0 0.1411681804
H  H32  1  0.68220000  0.58960000  0.36910000  1.0 0.1411681804
H  H33  1  0.21000000  0.15860000  0.92650000  1.0 0.1521128449
H  H34  1  0.15860000  0.21000000  0.57350000  1.0 0.1521128449
H  H35  1  0.79000000  0.84140000  0.07350000  1.0 0.1521128449
H  H36  1  0.84140000  0.79000000  0.42650000  1.0 0.1521128449
H  H37  1  0.28320000  0.20640000  0.18490000  1.0 0.1235449533
H  H38  1  0.20640000  0.28320000  0.31510000  1.0 0.1235449533
H  H39  1  0.71680000  0.79360000  0.81510000  1.0 0.1235449533
H  H40  1  0.79360000  0.71680000  0.68490000  1.0 0.1235449533
H  H41  1  0.14330000  0.06170000  0.18060000  1.0 0.1311574778
H  H42  1  0.06170000  0.14330000  0.31940000  1.0 0.1311574778
H  H43  1  0.85670000  0.93830000  0.81940000  1.0 0.1311574778
H  H44  1  0.93830000  0.85670000  0.68060000  1.0 0.1311574778
C  C1  1  0.54310000  0.18630000  0.27750000  1.0 0.5724917087
C  C2  1  0.18630000  0.54310000  0.22250000  1.0 0.5724917087
C  C3  1  0.45690000  0.81370000  0.72250000  1.0 0.5724917087
C  C4  1  0.81370000  0.45690000  0.77750000  1.0 0.5724917087
C  C5  1  0.46960000  0.20940000  0.18380000  1.0 -0.0504931328
C  C6  1  0.20940000  0.46960000  0.31620000  1.0 -0.0504931328
C  C7  1  0.53040000  0.79060000  0.81620000  1.0 -0.0504931328
C  C8  1  0.79060000  0.53040000  0.68380000  1.0 -0.0504931328
C  C9  1  0.39800000  0.18900000  0.23370000  1.0 -0.0718485581
C  C10  1  0.18900000  0.39800000  0.26630000  1.0 -0.0718485581
C  C11  1  0.60200000  0.81100000  0.76630000  1.0 -0.0718485581
C  C12  1  0.81100000  0.60200000  0.73370000  1.0 -0.0718485581
C  C13  1  0.47410000  0.25810000  0.05080000  1.0 -0.0718485581
C  C14  1  0.25810000  0.47410000  0.44920000  1.0 -0.0718485581
C  C15  1  0.52590000  0.74190000  0.94920000  1.0 -0.0718485581
C  C16  1  0.74190000  0.52590000  0.55080000  1.0 -0.0718485581
C  C17  1  0.24080000  0.84160000  0.21860000  1.0 0.6054829988
C  C18  1  0.84160000  0.24080000  0.28140000  1.0 0.6054829988
C  C19  1  0.75920000  0.15840000  0.78140000  1.0 0.6054829988
C  C20  1  0.15840000  0.75920000  0.71860000  1.0 0.6054829988
C  C21  1  0.19700000  0.90480000  0.13590000  1.0 -0.0504931328
C  C22  1  0.90480000  0.19700000  0.36410000  1.0 -0.0504931328
C  C23  1  0.80300000  0.09520000  0.86410000  1.0 -0.0504931328
C  C24  1  0.09520000  0.80300000  0.63590000  1.0 -0.0504931328
C  C25  1  0.15760000  0.90460000  0.99160000  1.0 -0.0718485581
C  C26  1  0.90460000  0.15760000  0.50840000  1.0 -0.0718485581
C  C27  1  0.84240000  0.09540000  0.00840000  1.0 -0.0718485581
C  C28  1  0.09540000  0.84240000  0.49160000  1.0 -0.0718485581
C  C29  1  0.19110000  0.96450000  0.20650000  1.0 -0.0768220672
C  C30  1  0.96450000  0.19110000  0.29350000  1.0 -0.0768220672
C  C31  1  0.80890000  0.03550000  0.79350000  1.0 -0.0768220672
C  C32  1  0.03550000  0.80890000  0.70650000  1.0 -0.0768220672
C  C33  1  0.06370000  0.28090000  0.92540000  1.0 0.0160521786
C  C34  1  0.28090000  0.06370000  0.57460000  1.0 0.0160521786
C  C35  1  0.93630000  0.71910000  0.07460000  1.0 0.0160521786
C  C36  1  0.71910000  0.93630000  0.42540000  1.0 0.0160521786
C  C37  1  0.11070000  0.02130000  0.98900000  1.0 0.2488954733
C  C38  1  0.02130000  0.11070000  0.51100000  1.0 0.2488954733
C  C39  1  0.88930000  0.97870000  0.01100000  1.0 0.2488954733
C  C40  1  0.97870000  0.88930000  0.48900000  1.0 0.2488954733
C  C41  1  0.03850000  0.20130000  0.92140000  1.0 -0.2218924735
C  C42  1  0.20130000  0.03850000  0.57860000  1.0 -0.2218924735
C  C43  1  0.96150000  0.79870000  0.07860000  1.0 -0.2218924735
C  C44  1  0.79870000  0.96150000  0.42140000  1.0 -0.2218924735
C  C45  1  0.14470000  0.31490000  0.93110000  1.0 -0.2218924735
C  C46  1  0.31490000  0.14470000  0.56890000  1.0 -0.2218924735
C  C47  1  0.85530000  0.68510000  0.06890000  1.0 -0.2218924735
C  C48  1  0.68510000  0.85530000  0.43110000  1.0 -0.2218924735
C  C49  1  0.00450000  0.33010000  0.93020000  1.0 0.5877544018
C  C50  1  0.33010000  0.00450000  0.56980000  1.0 0.5877544018
C  C51  1  0.99550000  0.66990000  0.06980000  1.0 0.5877544018
C  C52  1  0.66990000  0.99550000  0.43020000  1.0 0.5877544018
C  C53  1  0.19730000  0.26790000  0.93250000  1.0 0.2558031487
C  C54  1  0.26790000  0.19730000  0.56750000  1.0 0.2558031487
C  C55  1  0.80270000  0.73210000  0.06750000  1.0 0.2558031487
C  C56  1  0.73210000  0.80270000  0.43250000  1.0 0.2558031487
C  C57  1  0.09340000  0.15580000  0.92300000  1.0 0.2684325013
C  C58  1  0.15580000  0.09340000  0.57700000  1.0 0.2684325013
C  C59  1  0.90660000  0.84420000  0.07700000  1.0 0.2684325013
C  C60  1  0.84420000  0.90660000  0.42300000  1.0 0.2684325013
C  C61  1  0.33670000  0.26750000  0.01720000  1.0 0.2488954733
C  C62  1  0.26750000  0.33670000  0.48280000  1.0 0.2488954733
C  C63  1  0.66330000  0.73250000  0.98280000  1.0 0.2488954733
C  C64  1  0.73250000  0.66330000  0.51720000  1.0 0.2488954733
C  C65  1  0.11500000  0.96280000  0.91760000  1.0 -0.2019892004
C  C66  1  0.96280000  0.11500000  0.58240000  1.0 -0.2019892004
C  C67  1  0.88500000  0.03720000  0.08240000  1.0 -0.2019892004
C  C68  1  0.03720000  0.88500000  0.41760000  1.0 -0.2019892004
C  C69  1  0.40740000  0.28700000  0.96140000  1.0 -0.2099122894
C  C70  1  0.28700000  0.40740000  0.53860000  1.0 -0.2099122894
C  C71  1  0.59260000  0.71300000  0.03860000  1.0 -0.2099122894
C  C72  1  0.71300000  0.59260000  0.46140000  1.0 -0.2099122894
C  C73  1  0.17360000  0.18940000  0.92720000  1.0 -0.3193957475
C  C74  1  0.18940000  0.17360000  0.57280000  1.0 -0.3193957475
C  C75  1  0.82640000  0.81060000  0.07280000  1.0 -0.3193957475
C  C76  1  0.81060000  0.82640000  0.42720000  1.0 -0.3193957475
C  C77  1  0.33100000  0.21920000  0.15000000  1.0 -0.2218924735
C  C78  1  0.21920000  0.33100000  0.35000000  1.0 -0.2218924735
C  C79  1  0.66900000  0.78080000  0.85000000  1.0 -0.2218924735
C  C80  1  0.78080000  0.66900000  0.65000000  1.0 -0.2218924735
C  C81  1  0.14770000  0.02230000  0.13320000  1.0 -0.2218924735
C  C82  1  0.02230000  0.14770000  0.36680000  1.0 -0.2218924735
C  C83  1  0.85230000  0.97770000  0.86680000  1.0 -0.2218924735
C  C84  1  0.97770000  0.85230000  0.63320000  1.0 -0.2218924735
O  O1  1  0.03184000  0.39956000  0.95280000  1.0 -0.5605428683
O  O2  1  0.39956000  0.03184000  0.54720000  1.0 -0.5605428683
O  O3  1  0.96816000  0.60044000  0.04720000  1.0 -0.5605428683
O  O4  1  0.60044000  0.96816000  0.45280000  1.0 -0.5605428683
O  O5  1  0.54105000  0.13655000  0.39640000  1.0 -0.6049202946
O  O6  1  0.13655000  0.54105000  0.10360000  1.0 -0.6049202946
O  O7  1  0.45895000  0.86345000  0.60360000  1.0 -0.6049202946
O  O8  1  0.86345000  0.45895000  0.89640000  1.0 -0.6049202946
O  O9  1  0.60829000  0.21891000  0.23770000  1.0 -0.5076214937
O  O10  1  0.21891000  0.60829000  0.26230000  1.0 -0.5076214937
O  O11  1  0.39171000  0.78109000  0.76230000  1.0 -0.5076214937
O  O12  1  0.78109000  0.39171000  0.73770000  1.0 -0.5076214937
O  O13  1  0.24387000  0.78553000  0.15860000  1.0 -0.5605428683
O  O14  1  0.78553000  0.24387000  0.34140000  1.0 -0.5605428683
O  O15  1  0.75613000  0.21447000  0.84140000  1.0 -0.5605428683
O  O16  1  0.21447000  0.75613000  0.65860000  1.0 -0.5605428683
O  O17  1  0.27440000  0.84820000  0.34610000  1.0 -0.5737717864
O  O18  1  0.84820000  0.27440000  0.15390000  1.0 -0.5737717864
O  O19  1  0.72560000  0.15180000  0.65390000  1.0 -0.5737717864
O  O20  1  0.15180000  0.72560000  0.84610000  1.0 -0.5737717864
O  O21  1  0.93215000  0.29745000  0.90790000  1.0 -0.5605428683
O  O22  1  0.29745000  0.93215000  0.59210000  1.0 -0.5605428683
O  O23  1  0.06785000  0.70255000  0.09210000  1.0 -0.5605428683
O  O24  1  0.70255000  0.06785000  0.40790000  1.0 -0.5605428683
O  O25  1  0.06368000  0.07632000  0.91560000  1.0 -0.2099122894
O  O26  1  0.07632000  0.06368000  0.58440000  1.0 -0.2099122894
O  O27  1  0.93632000  0.92368000  0.08440000  1.0 -0.2099122894
O  O28  1  0.92368000  0.93632000  0.41560000  1.0 -0.2099122894
O  O29  1  0.27624000  0.30576000  0.93110000  1.0 -0.2218924735
O  O30  1  0.30576000  0.27624000  0.56890000  1.0 -0.2218924735
O  O31  1  0.72376000  0.69424000  0.06890000  1.0 -0.2218924735
O  O32  1  0.69424000  0.72376000  0.43110000  1.0 -0.2218924735
