# DDEC6 charges by PACMAN v1.1 (https://github.com/mtap-research/PACMAN-charge/)
data_YINCEF_ASR_pacman
_symmetry_space_group_name_H-M   'P 1'
_cell_length_a   17.67270000
_cell_length_b   17.67270000
_cell_length_c   9.52370000
_cell_angle_alpha   76.20080000
_cell_angle_beta   103.79900000
_cell_angle_gamma   103.47200000
_symmetry_Int_Tables_number   1
_chemical_formula_structural   Mn3H22(C21O8)2
_chemical_formula_sum   'Mn6 H44 C84 O32'
_cell_volume   2755.93663215
_cell_formula_units_Z   2
loop_
 _symmetry_equiv_pos_site_id
 _symmetry_equiv_pos_as_xyz
  1  'x, y, z'
loop_
 _atom_site_type_symbol
 _atom_site_label
 _atom_site_symmetry_multiplicity
 _atom_site_fract_x
 _atom_site_fract_y
 _atom_site_fract_z
 _atom_site_occupancy
 _atom_site_charge
Mn  Mn1  1  0.00000000  0.50000000  0.50000000  1.0 1.0801791133
Mn  Mn2  1  0.50000000  0.00000000  0.00000000  1.0 1.0801791133
Mn  Mn3  1  0.81274000  0.32230000  0.56422000  1.0 1.0515898348
Mn  Mn4  1  0.32230000  0.81274000  0.93578000  1.0 1.0515898348
Mn  Mn5  1  0.18726000  0.67770000  0.43578000  1.0 1.0515898348
Mn  Mn6  1  0.67770000  0.18726000  0.06422000  1.0 1.0515898348
H  H1  1  0.68290000  0.48550000  0.58420000  1.0 0.1417912226
H  H2  1  0.48550000  0.68290000  0.91580000  1.0 0.1417912226
H  H3  1  0.31710000  0.51450000  0.41580000  1.0 0.1417912226
H  H4  1  0.51450000  0.31710000  0.08420000  1.0 0.1417912226
H  H5  1  0.87130000  0.66090000  0.56070000  1.0 0.1417912226
H  H6  1  0.66090000  0.87130000  0.93930000  1.0 0.1417912226
H  H7  1  0.12870000  0.33910000  0.43930000  1.0 0.1417912226
H  H8  1  0.33910000  0.12870000  0.06070000  1.0 0.1417912226
H  H9  1  0.46630000  0.58350000  0.67770000  1.0 0.1316224591
H  H10  1  0.58350000  0.46630000  0.82230000  1.0 0.1316224591
H  H11  1  0.53370000  0.41650000  0.32230000  1.0 0.1316224591
H  H12  1  0.41650000  0.53370000  0.17770000  1.0 0.1316224591
H  H13  1  0.65180000  0.89180000  0.17520000  1.0 0.1107552641
H  H14  1  0.89180000  0.65180000  0.32480000  1.0 0.1107552641
H  H15  1  0.34820000  0.10820000  0.82480000  1.0 0.1107552641
H  H16  1  0.10820000  0.34820000  0.67520000  1.0 0.1107552641
H  H17  1  0.36780000  0.65420000  0.55630000  1.0 0.1202579116
H  H18  1  0.65420000  0.36780000  0.94370000  1.0 0.1202579116
H  H19  1  0.63220000  0.34580000  0.44370000  1.0 0.1202579116
H  H20  1  0.34580000  0.63220000  0.05630000  1.0 0.1202579116
H  H21  1  0.78550000  0.02090000  0.46900000  1.0 0.1202579116
H  H22  1  0.02090000  0.78550000  0.03100000  1.0 0.1202579116
H  H23  1  0.21450000  0.97910000  0.53100000  1.0 0.1202579116
H  H24  1  0.97910000  0.21450000  0.96900000  1.0 0.1202579116
H  H25  1  0.66200000  0.70820000  0.56940000  1.0 0.1507709058
H  H26  1  0.70820000  0.66200000  0.93060000  1.0 0.1507709058
H  H27  1  0.33800000  0.29180000  0.43060000  1.0 0.1507709058
H  H28  1  0.29180000  0.33800000  0.06940000  1.0 0.1507709058
H  H29  1  0.56390000  0.64770000  0.31820000  1.0 0.1316224591
H  H30  1  0.64770000  0.56390000  0.18180000  1.0 0.1316224591
H  H31  1  0.43610000  0.35230000  0.68180000  1.0 0.1316224591
H  H32  1  0.35230000  0.43610000  0.81820000  1.0 0.1316224591
H  H33  1  0.70310000  0.78210000  0.31190000  1.0 0.1202579116
H  H34  1  0.78210000  0.70310000  0.18810000  1.0 0.1202579116
H  H35  1  0.29690000  0.21790000  0.68810000  1.0 0.1202579116
H  H36  1  0.21790000  0.29690000  0.81190000  1.0 0.1202579116
H  H37  1  0.46740000  0.71980000  0.19840000  1.0 0.1107552641
H  H38  1  0.71980000  0.46740000  0.30160000  1.0 0.1107552641
H  H39  1  0.53260000  0.28020000  0.80160000  1.0 0.1107552641
H  H40  1  0.28020000  0.53260000  0.69840000  1.0 0.1107552641
H  H41  1  0.83000000  0.90940000  0.61390000  1.0 0.1417912226
H  H42  1  0.90940000  0.83000000  0.88610000  1.0 0.1417912226
H  H43  1  0.17000000  0.09060000  0.38610000  1.0 0.1417912226
H  H44  1  0.09060000  0.17000000  0.11390000  1.0 0.1417912226
C  C1  1  0.52507000  0.61033000  0.50910000  1.0 0.2393282571
C  C2  1  0.61033000  0.52507000  0.99090000  1.0 0.2393282571
C  C3  1  0.47493000  0.38967000  0.49090000  1.0 0.2393282571
C  C4  1  0.38967000  0.47493000  0.00910000  1.0 0.2393282571
C  C5  1  0.70533000  0.53887000  0.57880000  1.0 -0.2193108682
C  C6  1  0.53887000  0.70533000  0.92120000  1.0 -0.2193108682
C  C7  1  0.29467000  0.46113000  0.42120000  1.0 -0.2193108682
C  C8  1  0.46113000  0.29467000  0.07880000  1.0 -0.2193108682
C  C9  1  0.78482000  0.56418000  0.57470000  1.0 0.0073745282
C  C10  1  0.56418000  0.78482000  0.92530000  1.0 0.0073745282
C  C11  1  0.21518000  0.43582000  0.42530000  1.0 0.0073745282
C  C12  1  0.43582000  0.21518000  0.07470000  1.0 0.0073745282
C  C13  1  0.77066000  0.83574000  0.47590000  1.0 0.2472297878
C  C14  1  0.83574000  0.77066000  0.02410000  1.0 0.2472297878
C  C15  1  0.22934000  0.16426000  0.52410000  1.0 0.2472297878
C  C16  1  0.16426000  0.22934000  0.97590000  1.0 0.2472297878
C  C17  1  0.81813000  0.64327000  0.56620000  1.0 -0.2193108682
C  C18  1  0.64327000  0.81813000  0.93380000  1.0 -0.2193108682
C  C19  1  0.18187000  0.35673000  0.43380000  1.0 -0.2193108682
C  C20  1  0.35673000  0.18187000  0.06620000  1.0 -0.2193108682
C  C21  1  0.83398000  0.50462000  0.57380000  1.0 0.5911259086
C  C22  1  0.50462000  0.83398000  0.92620000  1.0 0.5911259086
C  C23  1  0.16602000  0.49538000  0.42620000  1.0 0.5911259086
C  C24  1  0.49538000  0.16602000  0.07380000  1.0 0.5911259086
C  C25  1  0.68627000  0.04193000  0.21330000  1.0 0.5691311241
C  C26  1  0.04193000  0.68627000  0.28670000  1.0 0.5691311241
C  C27  1  0.31373000  0.95807000  0.78670000  1.0 0.5691311241
C  C28  1  0.95807000  0.31373000  0.71330000  1.0 0.5691311241
C  C29  1  0.65889000  0.59251000  0.57490000  1.0 0.266236204
C  C30  1  0.59251000  0.65889000  0.92510000  1.0 0.266236204
C  C31  1  0.34111000  0.40749000  0.42510000  1.0 0.266236204
C  C32  1  0.40749000  0.34111000  0.07490000  1.0 0.266236204
C  C33  1  0.71319000  0.96861000  0.30720000  1.0 -0.0358189104
C  C34  1  0.96861000  0.71319000  0.19280000  1.0 -0.0358189104
C  C35  1  0.28681000  0.03139000  0.69280000  1.0 -0.0358189104
C  C36  1  0.03139000  0.28681000  0.80720000  1.0 -0.0358189104
C  C37  1  0.46608000  0.61092000  0.58130000  1.0 -0.1993262867
C  C38  1  0.61092000  0.46608000  0.91870000  1.0 -0.1993262867
C  C39  1  0.53392000  0.38908000  0.41870000  1.0 -0.1993262867
C  C40  1  0.38908000  0.53392000  0.08130000  1.0 -0.1993262867
C  C41  1  0.40579000  0.69281000  0.36370000  1.0 -0.0358189104
C  C42  1  0.69281000  0.40579000  0.13630000  1.0 -0.0358189104
C  C43  1  0.59421000  0.30719000  0.63630000  1.0 -0.0358189104
C  C44  1  0.30719000  0.59421000  0.86370000  1.0 -0.0358189104
C  C45  1  0.33997000  0.73643000  0.28320000  1.0 0.6061766179
C  C46  1  0.73643000  0.33997000  0.21680000  1.0 0.6061766179
C  C47  1  0.66003000  0.26357000  0.71680000  1.0 0.6061766179
C  C48  1  0.26357000  0.66003000  0.78320000  1.0 0.6061766179
C  C49  1  0.68874000  0.89606000  0.26220000  1.0 -0.0806996409
C  C50  1  0.89606000  0.68874000  0.23780000  1.0 -0.0806996409
C  C51  1  0.31126000  0.10394000  0.73780000  1.0 -0.0806996409
C  C52  1  0.10394000  0.31126000  0.76220000  1.0 -0.0806996409
C  C53  1  0.77144000  0.69636000  0.56600000  1.0 0.2636784495
C  C54  1  0.69636000  0.77144000  0.93400000  1.0 0.2636784495
C  C55  1  0.22856000  0.30364000  0.43400000  1.0 0.2636784495
C  C56  1  0.30364000  0.22856000  0.06600000  1.0 0.2636784495
C  C57  1  0.40732000  0.65268000  0.50830000  1.0 -0.0858664183
C  C58  1  0.65268000  0.40732000  0.99170000  1.0 -0.0858664183
C  C59  1  0.59268000  0.34732000  0.49170000  1.0 -0.0858664183
C  C60  1  0.34732000  0.59268000  0.00830000  1.0 -0.0858664183
C  C61  1  0.76745000  0.97255000  0.43840000  1.0 -0.0742661103
C  C62  1  0.97255000  0.76745000  0.06160000  1.0 -0.0742661103
C  C63  1  0.23255000  0.02745000  0.56160000  1.0 -0.0742661103
C  C64  1  0.02745000  0.23255000  0.93840000  1.0 -0.0742661103
C  C65  1  0.69265000  0.67195000  0.57000000  1.0 -0.3300641595
C  C66  1  0.67195000  0.69265000  0.93000000  1.0 -0.3300641595
C  C67  1  0.30735000  0.32805000  0.43000000  1.0 -0.3300641595
C  C68  1  0.32805000  0.30735000  0.07000000  1.0 -0.3300641595
C  C69  1  0.52447000  0.64973000  0.36600000  1.0 -0.2103962923
C  C70  1  0.64973000  0.52447000  0.13400000  1.0 -0.2103962923
C  C71  1  0.47553000  0.35027000  0.63400000  1.0 -0.2103962923
C  C72  1  0.35027000  0.47553000  0.86600000  1.0 -0.2103962923
C  C73  1  0.71831000  0.82989000  0.34460000  1.0 -0.2193108682
C  C74  1  0.82989000  0.71831000  0.15540000  1.0 -0.2193108682
C  C75  1  0.28169000  0.17011000  0.65540000  1.0 -0.2193108682
C  C76  1  0.17011000  0.28169000  0.84460000  1.0 -0.2193108682
C  C77  1  0.46661000  0.69179000  0.29410000  1.0 -0.0806996409
C  C78  1  0.69179000  0.46661000  0.20590000  1.0 -0.0806996409
C  C79  1  0.53339000  0.30821000  0.70590000  1.0 -0.0806996409
C  C80  1  0.30821000  0.53339000  0.79410000  1.0 -0.0806996409
C  C81  1  0.79521000  0.90639000  0.52430000  1.0 -0.1993262867
C  C82  1  0.90639000  0.79521000  0.97570000  1.0 -0.1993262867
C  C83  1  0.20479000  0.09361000  0.47570000  1.0 -0.1993262867
C  C84  1  0.09361000  0.20479000  0.02430000  1.0 -0.1993262867
O  O1  1  0.80020000  0.43368000  0.58830000  1.0 -0.5618145956
O  O2  1  0.43368000  0.80020000  0.91170000  1.0 -0.5618145956
O  O3  1  0.19980000  0.56632000  0.41170000  1.0 -0.5618145956
O  O4  1  0.56632000  0.19980000  0.08830000  1.0 -0.5618145956
O  O5  1  0.80839000  0.77525000  0.56430000  1.0 -0.2193108682
O  O6  1  0.77525000  0.80839000  0.93570000  1.0 -0.2193108682
O  O7  1  0.19161000  0.22475000  0.43570000  1.0 -0.2193108682
O  O8  1  0.22475000  0.19161000  0.06430000  1.0 -0.2193108682
O  O9  1  0.58064000  0.56370000  0.58350000  1.0 -0.2103962923
O  O10  1  0.56370000  0.58064000  0.91650000  1.0 -0.2103962923
O  O11  1  0.41936000  0.43630000  0.41650000  1.0 -0.2103962923
O  O12  1  0.43630000  0.41936000  0.08350000  1.0 -0.2103962923
O  O13  1  0.28603000  0.73805000  0.34470000  1.0 -0.543468502
O  O14  1  0.73805000  0.28603000  0.15530000  1.0 -0.543468502
O  O15  1  0.71397000  0.26195000  0.65530000  1.0 -0.543468502
O  O16  1  0.26195000  0.71397000  0.84470000  1.0 -0.543468502
O  O17  1  0.71778000  0.10638000  0.25610000  1.0 -0.5295895903
O  O18  1  0.10638000  0.71778000  0.24390000  1.0 -0.5295895903
O  O19  1  0.28222000  0.89362000  0.74390000  1.0 -0.5295895903
O  O20  1  0.89362000  0.28222000  0.75610000  1.0 -0.5295895903
O  O21  1  0.63540000  0.04046000  0.09470000  1.0 -0.6133258163
O  O22  1  0.04046000  0.63540000  0.40530000  1.0 -0.6133258163
O  O23  1  0.36460000  0.95954000  0.90530000  1.0 -0.6133258163
O  O24  1  0.95954000  0.36460000  0.59470000  1.0 -0.6133258163
O  O25  1  0.90445000  0.53155000  0.56040000  1.0 -0.5618145956
O  O26  1  0.53155000  0.90445000  0.93960000  1.0 -0.5618145956
O  O27  1  0.09555000  0.46845000  0.43960000  1.0 -0.5618145956
O  O28  1  0.46845000  0.09555000  0.06040000  1.0 -0.5618145956
O  O29  1  0.34470000  0.77158000  0.15470000  1.0 -0.5736985027
O  O30  1  0.77158000  0.34470000  0.34530000  1.0 -0.5736985027
O  O31  1  0.65530000  0.22842000  0.84530000  1.0 -0.5736985027
O  O32  1  0.22842000  0.65530000  0.65470000  1.0 -0.5736985027
