# DDEC6 charges by PACMAN v1.1 (https://github.com/mtap-research/PACMAN-charge/)
data_YINXUQ_ASR_pacman
_symmetry_space_group_name_H-M   'P 1'
_cell_length_a   9.74600000
_cell_length_b   15.28500000
_cell_length_c   18.65600000
_cell_angle_alpha   107.33900000
_cell_angle_beta   99.50900000
_cell_angle_gamma   92.53600000
_symmetry_Int_Tables_number   1
_chemical_formula_structural   Ag5H29C38N18O11
_chemical_formula_sum   'Ag10 H58 C76 N36 O22'
_cell_volume   2603.46902934
_cell_formula_units_Z   2
loop_
 _symmetry_equiv_pos_site_id
 _symmetry_equiv_pos_as_xyz
  1  'x, y, z'
loop_
 _atom_site_type_symbol
 _atom_site_label
 _atom_site_symmetry_multiplicity
 _atom_site_fract_x
 _atom_site_fract_y
 _atom_site_fract_z
 _atom_site_occupancy
 _atom_site_charge
Ag  Ag1  1  0.91970000  0.35040000  0.77580000  1.0 0.4294300334
Ag  Ag2  1  0.08030000  0.64960000  0.22420000  1.0 0.4294300334
Ag  Ag3  1  0.21777000  0.25773000  0.74888000  1.0 0.2683053868
Ag  Ag4  1  0.78223000  0.74227000  0.25112000  1.0 0.2683053868
Ag  Ag5  1  0.53430000  0.14830000  0.73690000  1.0 0.2181608932
Ag  Ag6  1  0.46570000  0.85170000  0.26310000  1.0 0.2181608932
Ag  Ag7  1  0.51630000  0.17190000  0.75120000  1.0 0.2021844046
Ag  Ag8  1  0.48370000  0.82810000  0.24880000  1.0 0.2021844046
Ag  Ag9  1  0.91570000  0.35310000  0.77930000  1.0 0.4294300334
Ag  Ag10  1  0.08430000  0.64690000  0.22070000  1.0 0.4294300334
H  H1  1  0.79670000  0.39570000  0.48500000  1.0 0.1277494467
H  H2  1  0.20330000  0.60430000  0.51500000  1.0 0.1277494467
H  H3  1  0.84670000  0.50010000  0.50200000  1.0 0.1111077503
H  H4  1  0.15330000  0.49990000  0.49800000  1.0 0.1111077503
H  H5  1  0.88240000  0.33740000  0.60050000  1.0 0.1277494467
H  H6  1  0.11760000  0.66260000  0.39950000  1.0 0.1277494467
H  H7  1  0.91200000  0.56680000  0.76490000  1.0 0.1277494467
H  H8  1  0.08800000  0.43320000  0.23510000  1.0 0.1277494467
H  H9  1  0.50070000  0.27310000  0.47490000  1.0 0.1277494467
H  H10  1  0.49930000  0.72690000  0.52510000  1.0 0.1277494467
H  H11  1  0.65950000  0.30950000  0.50210000  1.0 0.1209107128
H  H12  1  0.34050000  0.69050000  0.49790000  1.0 0.1209107128
H  H13  1  0.53950000  0.17600000  0.57510000  1.0 0.1277494467
H  H14  1  0.46050000  0.82400000  0.42490000  1.0 0.1277494467
H  H15  1  0.57690000  0.38680000  0.75770000  1.0 0.1019071527
H  H16  1  0.42310000  0.61320000  0.24230000  1.0 0.1019071527
H  H17  1  0.19270000  0.37070000  0.46140000  1.0 0.1209107128
H  H18  1  0.80730000  0.62930000  0.53860000  1.0 0.1209107128
H  H19  1  0.30380000  0.30100000  0.46830000  1.0 0.1209107128
H  H20  1  0.69620000  0.69900000  0.53170000  1.0 0.1209107128
H  H21  1  0.23910000  0.23670000  0.57210000  1.0 0.1209107128
H  H22  1  0.76090000  0.76330000  0.42790000  1.0 0.1209107128
H  H23  1  0.21740000  0.46640000  0.72730000  1.0 0.1111077503
H  H24  1  0.78260000  0.53360000  0.27270000  1.0 0.1111077503
H  H25  1  0.20240000  0.19770000  0.03360000  1.0 0.1209107128
H  H26  1  0.79760000  0.80230000  0.96640000  1.0 0.1209107128
H  H27  1  0.31000000  0.12360000  0.02830000  1.0 0.1209107128
H  H28  1  0.69000000  0.87640000  0.97170000  1.0 0.1209107128
H  H29  1  0.22320000  0.26750000  0.92480000  1.0 0.1359015958
H  H30  1  0.77680000  0.73250000  0.07520000  1.0 0.1359015958
H  H31  1  0.22970000  0.04270000  0.76110000  1.0 0.1019071527
H  H32  1  0.77030000  0.95730000  0.23890000  1.0 0.1019071527
H  H33  1  0.85340000  0.20020000  0.02800000  1.0 0.1111077503
H  H34  1  0.14660000  0.79980000  0.97200000  1.0 0.1111077503
H  H35  1  0.01370000  0.23020000  0.03890000  1.0 0.1277494467
H  H36  1  0.98630000  0.76980000  0.96110000  1.0 0.1277494467
H  H37  1  0.90930000  0.33200000  0.94460000  1.0 0.1545107024
H  H38  1  0.09070000  0.66800000  0.05540000  1.0 0.1545107024
H  H39  1  0.86620000  0.12880000  0.75910000  1.0 0.1111077503
H  H40  1  0.13380000  0.87120000  0.24090000  1.0 0.1111077503
H  H41  1  0.66210000  0.00910000  0.02180000  1.0 0.1111077503
H  H42  1  0.33790000  0.99090000  0.97820000  1.0 0.1111077503
H  H43  1  0.71750000  0.11260000  0.03890000  1.0 0.1209107128
H  H44  1  0.28250000  0.88740000  0.96110000  1.0 0.1209107128
H  H45  1  0.62230000  0.18030000  0.92820000  1.0 0.1277494467
H  H46  1  0.37770000  0.81970000  0.07180000  1.0 0.1209107128
H  H47  1  0.51000000  0.95220000  0.76440000  1.0 0.1111077503
H  H48  1  0.49000000  0.04780000  0.23560000  1.0 0.1111077503
H  H49  1  0.61270000  0.65440000  0.91430000  1.0 0.1111077503
H  H50  1  0.38730000  0.34560000  0.08570000  1.0 0.1111077503
H  H51  1  0.66540000  0.39480000  0.91130000  1.0 0.1111077503
H  H52  1  0.33460000  0.60520000  0.08870000  1.0 0.1111077503
H  H53  1  0.42810000  0.36440000  0.89900000  1.0 0.1019071527
H  H54  1  0.57190000  0.63560000  0.10100000  1.0 0.1019071527
H  H55  1  0.06890000  0.10930000  0.61770000  1.0 0.1019071527
H  H56  1  0.93110000  0.89070000  0.38230000  1.0 0.1019071527
H  H57  1  0.21610000  0.68600000  0.83710000  1.0 0.3607708471
H  H58  1  0.78390000  0.31400000  0.16290000  1.0 0.3607708471
C  C1  1  0.63880000  0.47960000  0.50840000  1.0 0.0024645427
C  C2  1  0.36120000  0.52040000  0.49160000  1.0 0.0024645427
C  C3  1  0.53300000  0.41380000  0.50600000  1.0 0.0024645427
C  C4  1  0.46700000  0.58620000  0.49400000  1.0 0.0024645427
C  C5  1  0.39300000  0.43360000  0.49640000  1.0 0.0111606895
C  C6  1  0.60700000  0.56640000  0.50360000  1.0 0.0111606895
C  C7  1  0.79100000  0.45750000  0.51770000  1.0 -0.2055872126
C  C8  1  0.20900000  0.54250000  0.48230000  1.0 -0.2055872126
C  C9  1  0.88080000  0.39890000  0.62800000  1.0 0.0403949315
C  C10  1  0.11920000  0.60110000  0.37200000  1.0 0.0403949315
C  C11  1  0.89550000  0.52410000  0.71620000  1.0 0.1111077503
C  C12  1  0.10450000  0.47590000  0.28380000  1.0 0.1111077503
C  C13  1  0.56660000  0.32040000  0.51290000  1.0 -0.2005651562
C  C14  1  0.43340000  0.67960000  0.48710000  1.0 -0.2005651562
C  C15  1  0.54920000  0.23570000  0.60860000  1.0 0.0453994157
C  C16  1  0.45080000  0.76430000  0.39140000  1.0 0.0453994157
C  C17  1  0.56960000  0.35150000  0.70690000  1.0 0.0670129837
C  C18  1  0.43040000  0.64850000  0.29310000  1.0 0.0670129837
C  C19  1  0.27770000  0.36170000  0.49260000  1.0 -0.2005651562
C  C20  1  0.72230000  0.63830000  0.50740000  1.0 -0.2005651562
C  C21  1  0.23690000  0.29870000  0.59790000  1.0 0.0631549092
C  C22  1  0.76310000  0.70130000  0.40210000  1.0 0.0631549092
C  C23  1  0.22490000  0.42400000  0.68090000  1.0 0.1277494467
C  C24  1  0.77510000  0.57600000  0.31910000  1.0 0.1277494467
C  C25  1  0.10620000  0.06600000  0.00310000  1.0 0.0111606895
C  C26  1  0.89380000  0.93400000  0.99690000  1.0 0.0111606895
C  C27  1  0.96910000  0.08930000  0.00300000  1.0 0.0216198092
C  C28  1  0.03090000  0.91070000  0.99700000  1.0 0.0216198092
C  C29  1  0.86150000  0.02360000  0.00040000  1.0 0.0111606895
C  C30  1  0.13850000  0.97640000  0.99960000  1.0 0.0111606895
C  C31  1  0.22100000  0.13700000  0.00410000  1.0 -0.1805435462
C  C32  1  0.77900000  0.86300000  0.99590000  1.0 -0.1805435462
C  C33  1  0.22500000  0.20610000  0.89700000  1.0 0.0929030994
C  C34  1  0.77500000  0.79390000  0.10300000  1.0 0.0929030994
C  C35  1  0.22850000  0.08310000  0.80930000  1.0 0.1019071527
C  C36  1  0.77150000  0.91690000  0.19070000  1.0 0.1019071527
C  C37  1  0.93670000  0.18650000  0.00620000  1.0 -0.2005651562
C  C38  1  0.06330000  0.81350000  0.99380000  1.0 -0.2005651562
C  C39  1  0.90310000  0.27310000  0.91010000  1.0 0.1019071527
C  C40  1  0.09690000  0.72690000  0.08990000  1.0 0.1019071527
C  C41  1  0.88010000  0.16210000  0.81080000  1.0 0.0929030994
C  C42  1  0.11990000  0.83790000  0.18920000  1.0 0.0929030994
C  C43  1  0.71310000  0.05110000  0.00320000  1.0 -0.1900618343
C  C44  1  0.28690000  0.94890000  0.99680000  1.0 -0.1900618343
C  C45  1  0.60640000  0.11810000  0.90000000  1.0 0.0403949315
C  C46  1  0.39360000  0.88190000  0.10000000  1.0 0.0403949315
C  C47  1  0.54720000  0.99380000  0.81220000  1.0 0.1019071527
C  C48  1  0.45280000  0.00620000  0.18780000  1.0 0.1019071527
C  C49  1  0.37440000  0.49140000  0.89940000  1.0 -0.0527151829
C  C50  1  0.62560000  0.50860000  0.10060000  1.0 -0.0527151829
C  C51  1  0.43150000  0.57750000  0.90340000  1.0 -0.0394823967
C  C52  1  0.56850000  0.42250000  0.09660000  1.0 -0.0394823967
C  C53  1  0.57580000  0.59620000  0.91170000  1.0 -0.14680389
C  C54  1  0.42420000  0.40380000  0.08830000  1.0 -0.14680389
C  C55  1  0.66500000  0.52840000  0.91640000  1.0 -0.0283408804
C  C56  1  0.33500000  0.47160000  0.08360000  1.0 -0.0283408804
C  C57  1  0.60750000  0.44130000  0.91020000  1.0 -0.1220550729
C  C58  1  0.39250000  0.55870000  0.08980000  1.0 -0.1220550729
C  C59  1  0.46490000  0.42300000  0.90240000  1.0 -0.1378391726
C  C60  1  0.53510000  0.57700000  0.09760000  1.0 -0.1378391726
C  C61  1  0.21890000  0.46950000  0.89570000  1.0 0.5572426475
C  C62  1  0.78110000  0.53050000  0.10430000  1.0 0.5572426475
C  C63  1  0.34540000  0.65620000  0.90030000  1.0 0.5572426475
C  C64  1  0.65460000  0.34380000  0.09970000  1.0 0.5572426475
C  C65  1  0.81820000  0.55540000  0.92860000  1.0 0.5572426475
C  C66  1  0.18180000  0.44460000  0.07140000  1.0 0.5572426475
C  C67  1  0.04010000  0.06500000  0.57020000  1.0 -0.2005651562
C  C68  1  0.95990000  0.93500000  0.42980000  1.0 -0.2005651562
C  C69  1  0.13780000  0.00510000  0.53990000  1.0 0.0024645427
C  C70  1  0.86220000  0.99490000  0.46010000  1.0 0.0024645427
C  C71  1  0.09620000  0.93920000  0.46750000  1.0 -0.0986232912
C  C72  1  0.90380000  0.06080000  0.53250000  1.0 -0.0986232912
C  C73  1  0.28310000  0.02080000  0.58810000  1.0 0.4294300334
C  C74  1  0.71690000  0.97920000  0.41190000  1.0 0.4294300334
C  C75  1  0.15860000  0.86890000  0.42530000  1.0 0.526446219
C  C76  1  0.84140000  0.13110000  0.57470000  1.0 0.526446219
N  N1  1  0.91180000  0.43280000  0.70300000  1.0 -0.3177910788
N  N2  1  0.08820000  0.56720000  0.29700000  1.0 -0.3177910788
N  N3  1  0.84710000  0.46450000  0.59720000  1.0 0.1713694328
N  N4  1  0.15290000  0.53550000  0.40280000  1.0 0.1713694328
N  N5  1  0.85440000  0.54600000  0.65370000  1.0 -0.2494021205
N  N6  1  0.14560000  0.45400000  0.34630000  1.0 -0.2494021205
N  N7  1  0.55390000  0.25820000  0.68360000  1.0 -0.2784142239
N  N8  1  0.44610000  0.74180000  0.31640000  1.0 -0.2784142239
N  N9  1  0.56070000  0.31300000  0.58910000  1.0 0.1713694328
N  N10  1  0.43930000  0.68700000  0.41090000  1.0 0.1713694328
N  N11  1  0.57340000  0.38770000  0.65190000  1.0 -0.2494021205
N  N12  1  0.42660000  0.61230000  0.34810000  1.0 -0.2494021205
N  N13  1  0.21970000  0.33200000  0.66930000  1.0 -0.2784142239
N  N14  1  0.78030000  0.66800000  0.33070000  1.0 -0.2784142239
N  N15  1  0.25070000  0.36660000  0.56830000  1.0 0.1713694328
N  N16  1  0.74930000  0.63340000  0.43170000  1.0 0.1713694328
N  N17  1  0.24160000  0.44770000  0.62070000  1.0 -0.2494021205
N  N18  1  0.75840000  0.55230000  0.37930000  1.0 -0.2494021205
N  N19  1  0.22470000  0.17490000  0.82270000  1.0 -0.3015737279
N  N20  1  0.77530000  0.82510000  0.17730000  1.0 -0.3015737279
N  N21  1  0.22840000  0.13620000  0.92590000  1.0 0.1713694328
N  N22  1  0.77160000  0.86380000  0.07410000  1.0 0.1713694328
N  N23  1  0.23010000  0.05570000  0.86950000  1.0 -0.2494021205
N  N24  1  0.76990000  0.94430000  0.13050000  1.0 -0.2494021205
N  N25  1  0.88190000  0.25370000  0.83540000  1.0 -0.3286174877
N  N26  1  0.11810000  0.74630000  0.16460000  1.0 -0.3286174877
N  N27  1  0.91450000  0.19640000  0.92910000  1.0 0.1797116281
N  N28  1  0.08550000  0.80360000  0.07090000  1.0 0.1797116281
N  N29  1  0.89910000  0.12260000  0.86420000  1.0 -0.2425615234
N  N30  1  0.10090000  0.87740000  0.13580000  1.0 -0.2425615234
N  N31  1  0.54980000  0.08590000  0.82680000  1.0 -0.2494021205
N  N32  1  0.45020000  0.91410000  0.17320000  1.0 -0.2494021205
N  N33  1  0.63760000  0.04960000  0.92780000  1.0 0.1797116281
N  N34  1  0.36240000  0.95040000  0.07220000  1.0 0.1797116281
N  N35  1  0.60120000  0.96810000  0.87080000  1.0 -0.2557574256
N  N36  1  0.39880000  0.03190000  0.12920000  1.0 -0.2557574256
O  O1  1  0.16690000  0.38930000  0.86450000  1.0 -0.5695471509
O  O2  1  0.83310000  0.61070000  0.13550000  1.0 -0.5695471509
O  O3  1  0.15370000  0.53520000  0.92640000  1.0 -0.4735963387
O  O4  1  0.84630000  0.46480000  0.07360000  1.0 -0.4735963387
O  O5  1  0.26010000  0.64120000  0.83560000  1.0 -0.4494694216
O  O6  1  0.73990000  0.35880000  0.16440000  1.0 -0.4494694216
O  O7  1  0.36160000  0.72680000  0.95220000  1.0 -0.5284165932
O  O8  1  0.63840000  0.27320000  0.04780000  1.0 -0.5284165932
O  O9  1  0.86510000  0.63350000  0.95800000  1.0 -0.5284165932
O  O10  1  0.13490000  0.36650000  0.04200000  1.0 -0.5284165932
O  O11  1  0.89600000  0.48830000  0.90840000  1.0 -0.5915193005
O  O12  1  0.10400000  0.51170000  0.09160000  1.0 -0.5915193005
O  O13  1  0.32310000  0.06360000  0.64620000  1.0 0.0817524785
O  O14  1  0.67690000  0.93640000  0.35380000  1.0 0.0817524785
O  O15  1  0.36800000  0.96520000  0.56600000  1.0 -0.3925485654
O  O16  1  0.63200000  0.03480000  0.43400000  1.0 -0.3925485654
O  O17  1  0.27240000  0.85260000  0.46530000  1.0 -0.5236235006
O  O18  1  0.72760000  0.14740000  0.53470000  1.0 -0.5236235006
O  O19  1  0.30230000  0.10700000  0.64460000  1.0 -0.1805435462
O  O20  1  0.69770000  0.89300000  0.35540000  1.0 -0.1805435462
O  O21  1  0.10840000  0.82380000  0.36190000  1.0 -0.543747042
O  O22  1  0.89160000  0.17620000  0.63810000  1.0 -0.543747042
