# DDEC6 charges by PACMAN v1.1 (https://github.com/mtap-research/PACMAN-charge/)
data_YIQTUR_ASR_pacman
_symmetry_space_group_name_H-M   'P 1'
_cell_length_a   11.57490000
_cell_length_b   11.57490000
_cell_length_c   13.63780000
_cell_angle_alpha   79.16290000
_cell_angle_beta   100.83700000
_cell_angle_gamma   115.69400000
_symmetry_Int_Tables_number   1
_chemical_formula_structural   CoH14C20(NO2)4
_chemical_formula_sum   'Co2 H28 C40 N8 O16'
_cell_volume   1605.38896476
_cell_formula_units_Z   2
loop_
 _symmetry_equiv_pos_site_id
 _symmetry_equiv_pos_as_xyz
  1  'x, y, z'
loop_
 _atom_site_type_symbol
 _atom_site_label
 _atom_site_symmetry_multiplicity
 _atom_site_fract_x
 _atom_site_fract_y
 _atom_site_fract_z
 _atom_site_occupancy
 _atom_site_charge
Co  Co1  1  0.50000000  0.00000000  0.00000000  1.0 0.767121082
Co  Co2  1  0.00000000  0.50000000  0.50000000  1.0 0.767121082
H  H1  1  0.79839000  0.90599000  0.90985000  1.0 0.1466636712
H  H2  1  0.20161000  0.09401000  0.09015000  1.0 0.1466636712
H  H3  1  0.70270000  0.06796000  0.36234000  1.0 0.1372244151
H  H4  1  0.29730000  0.93204000  0.63766000  1.0 0.1372244151
H  H5  1  0.69354000  0.08590000  0.19219000  1.0 0.105012005
H  H6  1  0.30646000  0.91410000  0.80781000  1.0 0.105012005
H  H7  1  0.45299000  0.86351000  0.50509000  1.0 0.1217196489
H  H8  1  0.54701000  0.13649000  0.49491000  1.0 0.1217196489
H  H9  1  0.60044000  0.95652000  0.51547000  1.0 0.105012005
H  H10  1  0.39956000  0.04348000  0.48453000  1.0 0.105012005
H  H11  1  0.32061000  0.87685000  0.33544000  1.0 0.1372244151
H  H12  1  0.67939000  0.12315000  0.66456000  1.0 0.1372244151
H  H13  1  0.31900000  0.89700000  0.16000000  1.0 0.1000651082
H  H14  1  0.68100000  0.10300000  0.84000000  1.0 0.1000651082
H  H15  1  0.90599000  0.79839000  0.59015000  1.0 0.1466636712
H  H16  1  0.09401000  0.20161000  0.40985000  1.0 0.1466636712
H  H17  1  0.06796000  0.70270000  0.13766000  1.0 0.1372244151
H  H18  1  0.93204000  0.29730000  0.86234000  1.0 0.1372244151
H  H19  1  0.08590000  0.69354000  0.30781000  1.0 0.105012005
H  H20  1  0.91410000  0.30646000  0.69219000  1.0 0.105012005
H  H21  1  0.86351000  0.45299000  0.99491000  1.0 0.1217196489
H  H22  1  0.13649000  0.54701000  0.00509000  1.0 0.1217196489
H  H23  1  0.95652000  0.60044000  0.98453000  1.0 0.105012005
H  H24  1  0.04348000  0.39956000  0.01547000  1.0 0.105012005
H  H25  1  0.87685000  0.32061000  0.16456000  1.0 0.1372244151
H  H26  1  0.12315000  0.67939000  0.83544000  1.0 0.1372244151
H  H27  1  0.89700000  0.31900000  0.34000000  1.0 0.1000651082
H  H28  1  0.10300000  0.68100000  0.66000000  1.0 0.1000651082
C  C1  1  0.79069000  0.06531000  0.02320000  1.0 0.5430115068
C  C2  1  0.20931000  0.93469000  0.97680000  1.0 0.5430115068
C  C3  1  0.51297000  0.96643000  0.37080000  1.0 0.1752133126
C  C4  1  0.48703000  0.03357000  0.62920000  1.0 0.1752133126
C  C5  1  0.98016000  0.91904000  0.93230000  1.0 0.0579014512
C  C6  1  0.01984000  0.08096000  0.06770000  1.0 0.0579014512
C  C7  1  0.87906000  0.94454000  0.94630000  1.0 -0.1537964141
C  C8  1  0.12094000  0.05546000  0.05370000  1.0 -0.1537964141
C  C9  1  0.62320000  0.03100000  0.32400000  1.0 -0.2014602108
C  C10  1  0.37680000  0.96900000  0.67600000  1.0 -0.2014602108
C  C11  1  0.89736000  0.02764000  0.01480000  1.0 -0.0290917649
C  C12  1  0.10264000  0.97236000  0.98520000  1.0 -0.0290917649
C  C13  1  0.61710000  0.04170000  0.22120000  1.0 0.0797068605
C  C14  1  0.38290000  0.95830000  0.77880000  1.0 0.0797068605
C  C15  1  0.51560000  0.94900000  0.48360000  1.0 -0.2145958489
C  C16  1  0.48440000  0.05100000  0.51640000  1.0 -0.2145958489
C  C17  1  0.40060000  0.93200000  0.20610000  1.0 0.0703215579
C  C18  1  0.59940000  0.06800000  0.79390000  1.0 0.0703215579
C  C19  1  0.39870000  0.91830000  0.30850000  1.0 -0.1873823946
C  C20  1  0.60130000  0.08170000  0.69150000  1.0 -0.1873823946
C  C21  1  0.06531000  0.79069000  0.47680000  1.0 0.5430115068
C  C22  1  0.93469000  0.20931000  0.52320000  1.0 0.5430115068
C  C23  1  0.96643000  0.51297000  0.12920000  1.0 0.1752133126
C  C24  1  0.03357000  0.48703000  0.87080000  1.0 0.1752133126
C  C25  1  0.91904000  0.98016000  0.56770000  1.0 0.0579014512
C  C26  1  0.08096000  0.01984000  0.43230000  1.0 0.0579014512
C  C27  1  0.94454000  0.87906000  0.55370000  1.0 -0.1537964141
C  C28  1  0.05546000  0.12094000  0.44630000  1.0 -0.1537964141
C  C29  1  0.03100000  0.62320000  0.17600000  1.0 -0.2014602108
C  C30  1  0.96900000  0.37680000  0.82400000  1.0 -0.2014602108
C  C31  1  0.02764000  0.89736000  0.48520000  1.0 -0.0290917649
C  C32  1  0.97236000  0.10264000  0.51480000  1.0 -0.0290917649
C  C33  1  0.04170000  0.61710000  0.27880000  1.0 0.0797068605
C  C34  1  0.95830000  0.38290000  0.72120000  1.0 0.0797068605
C  C35  1  0.94900000  0.51560000  0.01640000  1.0 -0.2145958489
C  C36  1  0.05100000  0.48440000  0.98360000  1.0 -0.2156624293
C  C37  1  0.93200000  0.40060000  0.29390000  1.0 0.0703215579
C  C38  1  0.06800000  0.59940000  0.70610000  1.0 0.0703215579
C  C39  1  0.91830000  0.39870000  0.19150000  1.0 -0.1873823946
C  C40  1  0.08170000  0.60130000  0.80850000  1.0 -0.1873823946
N  N1  1  0.50765000  0.99215000  0.16134000  1.0 -0.2268184518
N  N2  1  0.49235000  0.00785000  0.83866000  1.0 -0.2268184518
N  N3  1  0.96040000  0.84600000  0.84850000  1.0 0.5017598325
N  N4  1  0.03960000  0.15400000  0.15150000  1.0 0.5017598325
N  N5  1  0.99215000  0.50765000  0.33866000  1.0 -0.2268184518
N  N6  1  0.00785000  0.49235000  0.66134000  1.0 -0.2268184518
N  N7  1  0.84600000  0.96040000  0.65150000  1.0 0.5017598325
N  N8  1  0.15400000  0.03960000  0.34850000  1.0 0.5017598325
O  O1  1  0.67729000  0.97961000  0.01493000  1.0 -0.5469830429
O  O2  1  0.32271000  0.02039000  0.98507000  1.0 -0.5469830429
O  O3  1  0.82316000  0.17924000  0.03460000  1.0 -0.5469830429
O  O4  1  0.17684000  0.82076000  0.96540000  1.0 -0.5469830429
O  O5  1  0.04150000  0.88250000  0.79110000  1.0 -0.297558049
O  O6  1  0.95850000  0.11750000  0.20890000  1.0 -0.297558049
O  O7  1  0.86210000  0.75130000  0.83900000  1.0 -0.2594604662
O  O8  1  0.13790000  0.24870000  0.16100000  1.0 -0.2594604662
O  O9  1  0.97961000  0.67729000  0.48507000  1.0 -0.5469830429
O  O10  1  0.02039000  0.32271000  0.51493000  1.0 -0.5469830429
O  O11  1  0.17924000  0.82316000  0.46540000  1.0 -0.5469830429
O  O12  1  0.82076000  0.17684000  0.53460000  1.0 -0.5469830429
O  O13  1  0.88250000  0.04150000  0.70890000  1.0 -0.297558049
O  O14  1  0.11750000  0.95850000  0.29110000  1.0 -0.297558049
O  O15  1  0.75130000  0.86210000  0.66100000  1.0 -0.2594604662
O  O16  1  0.24870000  0.13790000  0.33900000  1.0 -0.2594604662
