# DDEC6 charges by PACMAN v1.1 (https://github.com/mtap-research/PACMAN-charge/)
data_YIQVAZ_ASR_pacman
_symmetry_space_group_name_H-M   'P 1'
_cell_length_a   12.96550000
_cell_length_b   12.96550000
_cell_length_c   13.57330000
_cell_angle_alpha   68.41890000
_cell_angle_beta   111.58100000
_cell_angle_gamma   125.15300000
_symmetry_Int_Tables_number   1
_chemical_formula_structural   CoH14C22(N3O5)2
_chemical_formula_sum   'Co2 H28 C44 N12 O20'
_cell_volume   1697.87059004
_cell_formula_units_Z   2
loop_
 _symmetry_equiv_pos_site_id
 _symmetry_equiv_pos_as_xyz
  1  'x, y, z'
loop_
 _atom_site_type_symbol
 _atom_site_label
 _atom_site_symmetry_multiplicity
 _atom_site_fract_x
 _atom_site_fract_y
 _atom_site_fract_z
 _atom_site_occupancy
 _atom_site_charge
Co  Co1  1  0.50000000  0.00000000  0.50000000  1.0 0.7324860318
Co  Co2  1  0.00000000  0.50000000  0.00000000  1.0 0.7324860318
H  H1  1  0.29774000  0.93896000  0.78864000  1.0 0.1269097252
H  H2  1  0.93896000  0.29774000  0.71136000  1.0 0.1269097252
H  H3  1  0.70226000  0.06104000  0.21136000  1.0 0.1269097252
H  H4  1  0.06104000  0.70226000  0.28864000  1.0 0.1269097252
H  H5  1  0.68151000  0.09351000  0.71281000  1.0 0.0884342788
H  H6  1  0.09351000  0.68151000  0.78719000  1.0 0.0884342788
H  H7  1  0.31849000  0.90649000  0.28719000  1.0 0.0884342788
H  H8  1  0.90649000  0.31849000  0.21281000  1.0 0.0884342788
H  H9  1  0.54862000  0.13358000  0.96163000  1.0 0.1192857938
H  H10  1  0.13358000  0.54862000  0.53837000  1.0 0.1192857938
H  H11  1  0.45138000  0.86642000  0.03837000  1.0 0.1192857938
H  H12  1  0.86642000  0.45138000  0.46163000  1.0 0.1192857938
H  H13  1  0.40124000  0.02962000  0.94737000  1.0 0.0884342788
H  H14  1  0.02962000  0.40124000  0.55263000  1.0 0.0884342788
H  H15  1  0.59876000  0.97038000  0.05263000  1.0 0.0884342788
H  H16  1  0.97038000  0.59876000  0.44737000  1.0 0.0884342788
H  H17  1  0.68009000  0.11579000  0.87111000  1.0 0.1192857938
H  H18  1  0.11579000  0.68009000  0.62889000  1.0 0.1192857938
H  H19  1  0.31991000  0.88421000  0.12889000  1.0 0.1192857938
H  H20  1  0.88421000  0.31991000  0.37111000  1.0 0.1192857938
H  H21  1  0.30877000  0.92243000  0.63129000  1.0 0.0842186546
H  H22  1  0.92243000  0.30877000  0.86871000  1.0 0.0842186546
H  H23  1  0.69123000  0.07757000  0.36871000  1.0 0.0842186546
H  H24  1  0.07757000  0.69123000  0.13129000  1.0 0.0842186546
H  H25  1  0.69397000  0.79509000  0.68909000  1.0 0.1463513074
H  H26  1  0.79509000  0.69397000  0.81091000  1.0 0.1463513074
H  H27  1  0.30603000  0.20491000  0.31091000  1.0 0.1463513074
H  H28  1  0.20491000  0.30603000  0.18909000  1.0 0.1463513074
C  C1  1  0.37760000  0.97260000  0.77450000  1.0 -0.2208613904
C  C2  1  0.97260000  0.37760000  0.72550000  1.0 -0.2208613904
C  C3  1  0.62240000  0.02740000  0.22550000  1.0 -0.2208613904
C  C4  1  0.02740000  0.62240000  0.27450000  1.0 -0.2208613904
C  C5  1  0.48830000  0.03230000  0.84810000  1.0 0.1664997375
C  C6  1  0.03230000  0.48830000  0.65190000  1.0 0.1664997375
C  C7  1  0.51170000  0.96770000  0.15190000  1.0 0.1664997375
C  C8  1  0.96770000  0.51170000  0.34810000  1.0 0.1664997375
C  C9  1  0.84050000  0.96950000  0.67440000  1.0 -0.0174909759
C  C10  1  0.96950000  0.84050000  0.82560000  1.0 -0.0174909759
C  C11  1  0.15950000  0.03050000  0.32560000  1.0 -0.0174909759
C  C12  1  0.03050000  0.15950000  0.17440000  1.0 -0.0174909759
C  C13  1  0.60280000  0.06260000  0.72780000  1.0 0.0603074057
C  C14  1  0.06260000  0.60280000  0.77220000  1.0 0.0603074057
C  C15  1  0.39720000  0.93740000  0.27220000  1.0 0.0603074057
C  C16  1  0.93740000  0.39720000  0.22780000  1.0 0.0603074057
C  C17  1  0.76810000  0.03570000  0.59920000  1.0 0.5108785553
C  C18  1  0.03570000  0.76810000  0.90080000  1.0 0.5108785553
C  C19  1  0.23190000  0.96430000  0.40080000  1.0 0.5108785553
C  C20  1  0.96430000  0.23190000  0.09920000  1.0 0.5108785553
C  C21  1  0.48560000  0.04580000  0.95180000  1.0 -0.2520338113
C  C22  1  0.04580000  0.48560000  0.54820000  1.0 -0.2520338113
C  C23  1  0.51440000  0.95420000  0.04820000  1.0 -0.2520338113
C  C24  1  0.95420000  0.51440000  0.45180000  1.0 -0.2520338113
C  C25  1  0.60270000  0.07650000  0.82320000  1.0 -0.2208613904
C  C26  1  0.07650000  0.60270000  0.67680000  1.0 -0.2208613904
C  C27  1  0.39730000  0.92350000  0.17680000  1.0 -0.2208613904
C  C28  1  0.92350000  0.39730000  0.32320000  1.0 -0.2208613904
C  C29  1  0.38500000  0.96240000  0.68010000  1.0 0.0603074057
C  C30  1  0.96240000  0.38500000  0.81990000  1.0 0.0603074057
C  C31  1  0.61500000  0.03760000  0.31990000  1.0 0.0603074057
C  C32  1  0.03760000  0.61500000  0.18010000  1.0 0.0603074057
C  C33  1  0.78240000  0.84400000  0.71340000  1.0 -0.1624396482
C  C34  1  0.84400000  0.78240000  0.78660000  1.0 -0.1624396482
C  C35  1  0.21760000  0.15600000  0.28660000  1.0 -0.1624396482
C  C36  1  0.15600000  0.21760000  0.21340000  1.0 -0.1624396482
C  C37  1  0.95790000  0.03210000  0.75130000  1.0 -0.0885299074
C  C38  1  0.03210000  0.95790000  0.74870000  1.0 -0.0885299074
C  C39  1  0.04210000  0.96790000  0.24870000  1.0 -0.0885299074
C  C40  1  0.96790000  0.04210000  0.25130000  1.0 -0.0885299074
C  C41  1  0.96580000  0.01740000  0.67800000  1.0 -0.0174909759
C  C42  1  0.01740000  0.96580000  0.82200000  1.0 -0.0174909759
C  C43  1  0.03420000  0.98260000  0.32200000  1.0 -0.0174909759
C  C44  1  0.98260000  0.03420000  0.17800000  1.0 -0.0174909759
N  N1  1  0.49547000  0.00693000  0.65567000  1.0 -0.2317186819
N  N2  1  0.00693000  0.49547000  0.84433000  1.0 -0.2317186819
N  N3  1  0.50453000  0.99307000  0.34433000  1.0 -0.2317186819
N  N4  1  0.99307000  0.50453000  0.15567000  1.0 -0.2317186819
N  N5  1  0.05080000  0.15280000  0.62150000  1.0 0.2494373245
N  N6  1  0.15280000  0.05080000  0.87850000  1.0 0.2494373245
N  N7  1  0.94920000  0.84720000  0.37850000  1.0 0.2494373245
N  N8  1  0.84720000  0.94920000  0.12150000  1.0 0.2494373245
N  N9  1  0.04700000  0.14500000  0.53200000  1.0 0.0310449543
N  N10  1  0.14500000  0.04700000  0.96800000  1.0 0.0310449543
N  N11  1  0.95300000  0.85500000  0.46800000  1.0 0.0310449543
N  N12  1  0.85500000  0.95300000  0.03200000  1.0 0.0310449543
O  O1  1  0.64953000  0.96347000  0.57013000  1.0 -0.5240932779
O  O2  1  0.96347000  0.64953000  0.92987000  1.0 -0.5240932779
O  O3  1  0.35047000  0.03653000  0.42987000  1.0 -0.5240932779
O  O4  1  0.03653000  0.35047000  0.07013000  1.0 -0.5240932779
O  O5  1  0.82907000  0.15493000  0.57447000  1.0 -0.5514429139
O  O6  1  0.15493000  0.82907000  0.92553000  1.0 -0.5514429139
O  O7  1  0.17093000  0.84507000  0.42553000  1.0 -0.5514429139
O  O8  1  0.84507000  0.17093000  0.07447000  1.0 -0.5514429139
O  O9  1  0.97640000  0.11760000  0.49940000  1.0 -0.082971763
O  O10  1  0.11760000  0.97640000  0.00060000  1.0 -0.082971763
O  O11  1  0.02360000  0.88240000  0.50060000  1.0 -0.082971763
O  O12  1  0.88240000  0.02360000  0.99940000  1.0 -0.082971763
O  O13  1  0.12880000  0.23500000  0.66980000  1.0 -0.1502825024
O  O14  1  0.23500000  0.12880000  0.83020000  1.0 -0.1502825024
O  O15  1  0.87120000  0.76500000  0.33020000  1.0 -0.1502825024
O  O16  1  0.76500000  0.87120000  0.16980000  1.0 -0.1502825024
O  O17  1  0.10320000  0.20080000  0.58020000  1.0 0.3025790079
O  O18  1  0.20080000  0.10320000  0.91980000  1.0 0.3025790079
O  O19  1  0.89680000  0.79920000  0.41980000  1.0 0.3025790079
O  O20  1  0.79920000  0.89680000  0.08020000  1.0 0.3025790079
