# DDEC6 charges by PACMAN v1.1 (https://github.com/mtap-research/PACMAN-charge/)
data_YIRXOP_ASR_pacman
_symmetry_space_group_name_H-M   'P 1'
_cell_length_a   6.21700000
_cell_length_b   8.49300000
_cell_length_c   11.99300000
_cell_angle_alpha   85.80300000
_cell_angle_beta   83.74100000
_cell_angle_gamma   85.05800000
_symmetry_Int_Tables_number   1
_chemical_formula_structural   CoH6C11(NO2)2
_chemical_formula_sum   'Co2 H12 C22 N4 O8'
_cell_volume   625.82499313
_cell_formula_units_Z   2
loop_
 _symmetry_equiv_pos_site_id
 _symmetry_equiv_pos_as_xyz
  1  'x, y, z'
loop_
 _atom_site_type_symbol
 _atom_site_label
 _atom_site_symmetry_multiplicity
 _atom_site_fract_x
 _atom_site_fract_y
 _atom_site_fract_z
 _atom_site_occupancy
 _atom_site_charge
Co  Co1  1  0.88921000  0.04397000  0.11226000  1.0 0.9067348432
Co  Co2  1  0.11079000  0.95603000  0.88774000  1.0 0.9067348432
H  H1  1  0.15010000  0.49790000  0.08460000  1.0 0.1186181199
H  H2  1  0.15480000  0.63190000  0.79780000  1.0 0.1115486141
H  H3  1  0.58620000  0.94110000  0.78600000  1.0 0.1284970831
H  H4  1  0.37610000  0.47960000  0.67690000  1.0 0.1450366568
H  H5  1  0.81850000  0.79720000  0.66450000  1.0 0.1375276338
H  H6  1  0.71350000  0.42630000  0.56090000  1.0 0.1186181199
H  H7  1  0.84990000  0.50210000  0.91540000  1.0 0.1186181199
H  H8  1  0.84520000  0.36810000  0.20220000  1.0 0.1115486141
H  H9  1  0.41380000  0.05890000  0.21400000  1.0 0.1284970831
H  H10  1  0.62390000  0.52040000  0.32310000  1.0 0.1450366568
H  H11  1  0.18150000  0.20280000  0.33550000  1.0 0.1375276338
H  H12  1  0.28650000  0.57370000  0.43910000  1.0 0.1186181199
C  C1  1  0.27990000  0.76820000  0.11550000  1.0 0.5983173888
C  C2  1  0.40240000  0.63350000  0.05440000  1.0 -0.0332568507
C  C3  1  0.29160000  0.49900000  0.05020000  1.0 -0.1413997818
C  C4  1  0.61540000  0.63450000  0.00360000  1.0 -0.0583229396
C  C5  1  0.29020000  0.66540000  0.77030000  1.0 0.0857082199
C  C6  1  0.54340000  0.84720000  0.76340000  1.0 0.1033966284
C  C7  1  0.74930000  0.77250000  0.00480000  1.0 0.5983173888
C  C8  1  0.42180000  0.57360000  0.69780000  1.0 -0.1667079884
C  C9  1  0.68360000  0.76150000  0.69050000  1.0 -0.1511726785
C  C10  1  0.62340000  0.62150000  0.65580000  1.0 0.1186181199
C  C11  1  0.76290000  0.52060000  0.57880000  1.0 0.0558938891
C  C12  1  0.72010000  0.23180000  0.88450000  1.0 0.5983173888
C  C13  1  0.59760000  0.36650000  0.94560000  1.0 -0.0332568507
C  C14  1  0.70840000  0.50100000  0.94980000  1.0 -0.1413997818
C  C15  1  0.38460000  0.36550000  0.99640000  1.0 -0.0583229396
C  C16  1  0.70980000  0.33460000  0.22970000  1.0 0.0857082199
C  C17  1  0.45660000  0.15280000  0.23660000  1.0 0.1033966284
C  C18  1  0.25070000  0.22750000  0.99520000  1.0 0.5983173888
C  C19  1  0.57820000  0.42640000  0.30220000  1.0 -0.1667079884
C  C20  1  0.31640000  0.23850000  0.30950000  1.0 -0.1511726785
C  C21  1  0.37660000  0.37850000  0.34420000  1.0 0.1186181199
C  C22  1  0.23710000  0.47940000  0.42120000  1.0 0.0558938891
N  N1  1  0.34790000  0.80200000  0.80360000  1.0 -0.2587097991
N  N2  1  0.94900000  0.55800000  0.53580000  1.0 -0.1885406781
N  N3  1  0.65210000  0.19800000  0.19640000  1.0 -0.2587097991
N  N4  1  0.05100000  0.44200000  0.46420000  1.0 -0.1885406781
O  O1  1  0.18500000  0.87950000  0.05880000  1.0 -0.58885337
O  O2  1  0.27120000  0.75750000  0.21990000  1.0 -0.5440330315
O  O3  1  0.89560000  0.78800000  0.92390000  1.0 -0.5691288818
O  O4  1  0.29130000  0.13900000  0.91400000  1.0 -0.5267067063
O  O5  1  0.81500000  0.12050000  0.94120000  1.0 -0.58885337
O  O6  1  0.72880000  0.24250000  0.78010000  1.0 -0.5440330315
O  O7  1  0.10440000  0.21200000  0.07610000  1.0 -0.5691288818
O  O8  1  0.70870000  0.86100000  0.08600000  1.0 -0.5267067063
