# DDEC6 charges by PACMAN v1.1 (https://github.com/mtap-research/PACMAN-charge/)
data_YIVTII_ASR_pacman
_symmetry_space_group_name_H-M   'P 1'
_cell_length_a   11.08140000
_cell_length_b   11.08140000
_cell_length_c   19.06400000
_cell_angle_alpha   81.97890000
_cell_angle_beta   98.02110000
_cell_angle_gamma   92.03290000
_symmetry_Int_Tables_number   1
_chemical_formula_structural   NaCo2H22C36N4O9
_chemical_formula_sum   'Na2 Co4 H44 C72 N8 O18'
_cell_volume   2295.12309440
_cell_formula_units_Z   2
loop_
 _symmetry_equiv_pos_site_id
 _symmetry_equiv_pos_as_xyz
  1  'x, y, z'
loop_
 _atom_site_type_symbol
 _atom_site_label
 _atom_site_symmetry_multiplicity
 _atom_site_fract_x
 _atom_site_fract_y
 _atom_site_fract_z
 _atom_site_occupancy
 _atom_site_charge
Na  Na1  1  0.94980000  0.94980000  0.75000000  1.0 0.9418958013
Na  Na2  1  0.05020000  0.05020000  0.25000000  1.0 0.9418958013
Co  Co1  1  0.71803000  0.79853000  0.82974000  1.0 0.9004419927
Co  Co2  1  0.79853000  0.71803000  0.67026000  1.0 0.9004419927
Co  Co3  1  0.28197000  0.20147000  0.17026000  1.0 0.9004419927
Co  Co4  1  0.20147000  0.28197000  0.32974000  1.0 0.9004419927
H  H1  1  0.62170000  0.46150000  0.90150000  1.0 0.0926315695
H  H2  1  0.46150000  0.62170000  0.59850000  1.0 0.0926315695
H  H3  1  0.37830000  0.53850000  0.09850000  1.0 0.0926315695
H  H4  1  0.53850000  0.37830000  0.40150000  1.0 0.0926315695
H  H5  1  0.60660000  0.09980000  0.89900000  1.0 0.1019230557
H  H6  1  0.09980000  0.60660000  0.60100000  1.0 0.1019230557
H  H7  1  0.39340000  0.90020000  0.10100000  1.0 0.1019230557
H  H8  1  0.90020000  0.39340000  0.39900000  1.0 0.1019230557
H  H9  1  0.78380000  0.31460000  0.75710000  1.0 0.1203359549
H  H10  1  0.31460000  0.78380000  0.74290000  1.0 0.1203359549
H  H11  1  0.21620000  0.68540000  0.24290000  1.0 0.1203359549
H  H12  1  0.68540000  0.21620000  0.25710000  1.0 0.1203359549
H  H13  1  0.39450000  0.13630000  0.92990000  1.0 0.1088775678
H  H14  1  0.13630000  0.39450000  0.57010000  1.0 0.1088775678
H  H15  1  0.60550000  0.86370000  0.07010000  1.0 0.1088775678
H  H16  1  0.86370000  0.60550000  0.42990000  1.0 0.1088775678
H  H17  1  0.29120000  0.11240000  0.02660000  1.0 0.1088775678
H  H18  1  0.11240000  0.29120000  0.47340000  1.0 0.1088775678
H  H19  1  0.70880000  0.88760000  0.97340000  1.0 0.1088775678
H  H20  1  0.88760000  0.70880000  0.52660000  1.0 0.1088775678
H  H21  1  0.49510000  0.35610000  0.11610000  1.0 0.1203359549
H  H22  1  0.35610000  0.49510000  0.38390000  1.0 0.1203359549
H  H23  1  0.50490000  0.64390000  0.88390000  1.0 0.1203359549
H  H24  1  0.64390000  0.50490000  0.61610000  1.0 0.1203359549
H  H25  1  0.62300000  0.37240000  0.02870000  1.0 0.1019230557
H  H26  1  0.37240000  0.62300000  0.47130000  1.0 0.1019230557
H  H27  1  0.37700000  0.62760000  0.97130000  1.0 0.1019230557
H  H28  1  0.62760000  0.37700000  0.52870000  1.0 0.1019230557
H  H29  1  0.41750000  0.39410000  0.93320000  1.0 0.1019230557
H  H30  1  0.39410000  0.41750000  0.56680000  1.0 0.1019230557
H  H31  1  0.58250000  0.60590000  0.06680000  1.0 0.1019230557
H  H32  1  0.60590000  0.58250000  0.43320000  1.0 0.1019230557
H  H33  1  0.31490000  0.37570000  0.03040000  1.0 0.1088775678
H  H34  1  0.37570000  0.31490000  0.46960000  1.0 0.1088775678
H  H35  1  0.68510000  0.62430000  0.96960000  1.0 0.1088775678
H  H36  1  0.62430000  0.68510000  0.53040000  1.0 0.1088775678
H  H37  1  0.51680000  0.11380000  0.13580000  1.0 0.1203359549
H  H38  1  0.11380000  0.51680000  0.36420000  1.0 0.1203359549
H  H39  1  0.48320000  0.88620000  0.86420000  1.0 0.1203359549
H  H40  1  0.88620000  0.48320000  0.63580000  1.0 0.1203359549
H  H41  1  0.63640000  0.12180000  0.03930000  1.0 0.1088775678
H  H42  1  0.12180000  0.63640000  0.46070000  1.0 0.1088775678
H  H43  1  0.36360000  0.87820000  0.96070000  1.0 0.1088775678
H  H44  1  0.87820000  0.36360000  0.53930000  1.0 0.1088775678
C  C1  1  0.64260000  0.39340000  0.88270000  1.0 -0.2336541044
C  C2  1  0.39340000  0.64260000  0.61730000  1.0 -0.2336541044
C  C3  1  0.35740000  0.60660000  0.11730000  1.0 -0.2336541044
C  C4  1  0.60660000  0.35740000  0.38270000  1.0 -0.2336541044
C  C5  1  0.60460000  0.27880000  0.91060000  1.0 0.0634641039
C  C6  1  0.27880000  0.60460000  0.58940000  1.0 0.0634641039
C  C7  1  0.39540000  0.72120000  0.08940000  1.0 0.0634641039
C  C8  1  0.72120000  0.39540000  0.41060000  1.0 0.0634641039
C  C9  1  0.63490000  0.17670000  0.88180000  1.0 -0.2043995078
C  C10  1  0.17670000  0.63490000  0.61820000  1.0 -0.2055356319
C  C11  1  0.36510000  0.82330000  0.11820000  1.0 -0.2043995078
C  C12  1  0.82330000  0.36510000  0.38180000  1.0 -0.2043995078
C  C13  1  0.70880000  0.19060000  0.82660000  1.0 -0.0102235556
C  C14  1  0.19060000  0.70880000  0.67340000  1.0 -0.0102235556
C  C15  1  0.29120000  0.80940000  0.17340000  1.0 -0.0102235556
C  C16  1  0.80940000  0.29120000  0.32660000  1.0 -0.0102235556
C  C17  1  0.74200000  0.30540000  0.79660000  1.0 -0.1417900997
C  C18  1  0.30540000  0.74200000  0.70340000  1.0 -0.1417900997
C  C19  1  0.25800000  0.69460000  0.20340000  1.0 -0.1417900997
C  C20  1  0.69460000  0.25800000  0.29660000  1.0 -0.1417900997
C  C21  1  0.71330000  0.40730000  0.82550000  1.0 -0.0203894887
C  C22  1  0.40730000  0.71330000  0.67450000  1.0 -0.0203894887
C  C23  1  0.28670000  0.59270000  0.17450000  1.0 -0.0203894887
C  C24  1  0.59270000  0.28670000  0.32550000  1.0 -0.0203894887
C  C25  1  0.74910000  0.53490000  0.79730000  1.0 0.5822299783
C  C26  1  0.53490000  0.74910000  0.70270000  1.0 0.5822299783
C  C27  1  0.25090000  0.46510000  0.20270000  1.0 0.5822299783
C  C28  1  0.46510000  0.25090000  0.29730000  1.0 0.5822299783
C  C29  1  0.74030000  0.07390000  0.80080000  1.0 0.5853938644
C  C30  1  0.07390000  0.74030000  0.69920000  1.0 0.5853938644
C  C31  1  0.25970000  0.92610000  0.19920000  1.0 0.5853938644
C  C32  1  0.92610000  0.25970000  0.30080000  1.0 0.5822299783
C  C33  1  0.51650000  0.26350000  0.96340000  1.0 0.0634641039
C  C34  1  0.26350000  0.51650000  0.53660000  1.0 0.0634641039
C  C35  1  0.48350000  0.73650000  0.03660000  1.0 0.0634641039
C  C36  1  0.73650000  0.48350000  0.46340000  1.0 0.0634641039
C  C37  1  0.41890000  0.18110000  0.96740000  1.0 -0.1611440855
C  C38  1  0.18110000  0.41890000  0.53260000  1.0 -0.1611440855
C  C39  1  0.58110000  0.81890000  0.03260000  1.0 -0.1611440855
C  C40  1  0.81890000  0.58110000  0.46740000  1.0 -0.1611440855
C  C41  1  0.35830000  0.16510000  0.02630000  1.0 0.0416720609
C  C42  1  0.16510000  0.35830000  0.47370000  1.0 0.0416720609
C  C43  1  0.64170000  0.83490000  0.97370000  1.0 0.0416720609
C  C44  1  0.83490000  0.64170000  0.52630000  1.0 0.0416720609
C  C45  1  0.48010000  0.30590000  0.08060000  1.0 0.0926315695
C  C46  1  0.30590000  0.48010000  0.41940000  1.0 0.0926315695
C  C47  1  0.51990000  0.69410000  0.91940000  1.0 0.0926315695
C  C48  1  0.69410000  0.51990000  0.58060000  1.0 0.0926315695
C  C49  1  0.55300000  0.32340000  0.02530000  1.0 -0.0944355319
C  C50  1  0.32340000  0.55300000  0.47470000  1.0 -0.0957085282
C  C51  1  0.44700000  0.67660000  0.97470000  1.0 -0.0957085282
C  C52  1  0.67660000  0.44700000  0.52530000  1.0 -0.0957085282
C  C53  1  0.54200000  0.26200000  0.97910000  1.0 0.0724466626
C  C54  1  0.26200000  0.54200000  0.52090000  1.0 0.0724466626
C  C55  1  0.45800000  0.73800000  0.02090000  1.0 0.0724466626
C  C56  1  0.73800000  0.45800000  0.47910000  1.0 0.0724466626
C  C57  1  0.43990000  0.33730000  0.97320000  1.0 -0.1315254981
C  C58  1  0.33730000  0.43990000  0.52680000  1.0 -0.1315254981
C  C59  1  0.56010000  0.66270000  0.02680000  1.0 -0.1315254981
C  C60  1  0.66270000  0.56010000  0.47320000  1.0 -0.1315254981
C  C61  1  0.37610000  0.32030000  0.03060000  1.0 0.0542177145
C  C62  1  0.32030000  0.37610000  0.46940000  1.0 0.0542177145
C  C63  1  0.62390000  0.67970000  0.96940000  1.0 0.0542177145
C  C64  1  0.67970000  0.62390000  0.53060000  1.0 0.0542177145
C  C65  1  0.49640000  0.16580000  0.09340000  1.0 0.0926315695
C  C66  1  0.16580000  0.49640000  0.40660000  1.0 0.0926315695
C  C67  1  0.50360000  0.83420000  0.90660000  1.0 0.0926315695
C  C68  1  0.83420000  0.50360000  0.59340000  1.0 0.0926315695
C  C69  1  0.57140000  0.17380000  0.03690000  1.0 -0.1611440855
C  C70  1  0.17380000  0.57140000  0.46310000  1.0 -0.1611440855
C  C71  1  0.42860000  0.82620000  0.96310000  1.0 -0.1611440855
C  C72  1  0.82620000  0.42860000  0.53690000  1.0 -0.1611440855
N  N1  1  0.39390000  0.22550000  0.08570000  1.0 -0.1417900997
N  N2  1  0.22550000  0.39390000  0.41430000  1.0 -0.1417900997
N  N3  1  0.60610000  0.77450000  0.91430000  1.0 -0.1417900997
N  N4  1  0.77450000  0.60610000  0.58570000  1.0 -0.1417900997
N  N5  1  0.39130000  0.23870000  0.08320000  1.0 -0.1168293006
N  N6  1  0.23870000  0.39130000  0.41680000  1.0 -0.1168293006
N  N7  1  0.60870000  0.76130000  0.91680000  1.0 -0.1168293006
N  N8  1  0.76130000  0.60870000  0.58320000  1.0 -0.1168293006
O  O1  1  0.70350000  0.97930000  0.83210000  1.0 -0.5496371205
O  O2  1  0.97930000  0.70350000  0.66790000  1.0 -0.5496371205
O  O3  1  0.29650000  0.02070000  0.16790000  1.0 -0.5496371205
O  O4  1  0.02070000  0.29650000  0.33210000  1.0 -0.5496371205
O  O5  1  0.80180000  0.08180000  0.74870000  1.0 -0.6325845535
O  O6  1  0.08180000  0.80180000  0.75130000  1.0 -0.6325845535
O  O7  1  0.19820000  0.91820000  0.25130000  1.0 -0.6325845535
O  O8  1  0.91820000  0.19820000  0.24870000  1.0 -0.6325845535
O  O9  1  0.73080000  0.61680000  0.83410000  1.0 -0.5777351928
O  O10  1  0.61680000  0.73080000  0.66590000  1.0 -0.5777351928
O  O11  1  0.26920000  0.38320000  0.16590000  1.0 -0.5777351928
O  O12  1  0.38320000  0.26920000  0.33410000  1.0 -0.5777351928
O  O13  1  0.79800000  0.55220000  0.73970000  1.0 -0.5777351928
O  O14  1  0.55220000  0.79800000  0.76030000  1.0 -0.5777351928
O  O15  1  0.20200000  0.44780000  0.26030000  1.0 -0.5777351928
O  O16  1  0.44780000  0.20200000  0.23970000  1.0 -0.5749118145
O  O17  1  0.84040000  0.84040000  0.75000000  1.0 -0.9162381406
O  O18  1  0.15960000  0.15960000  0.25000000  1.0 -0.9162381406
