# DDEC6 charges by PACMAN v1.1 (https://github.com/mtap-research/PACMAN-charge/)
data_YIVZIO_FSR_pacman
_symmetry_space_group_name_H-M   'P 1'
_cell_length_a   14.16800000
_cell_length_b   15.09100000
_cell_length_c   22.75200000
_cell_angle_alpha   85.33300000
_cell_angle_beta   104.87000000
_cell_angle_gamma   110.57400000
_symmetry_Int_Tables_number   1
_chemical_formula_structural   Pr3Si2H32C64N3O25
_chemical_formula_sum   'Pr6 Si4 H64 C128 N6 O50'
_cell_volume   4401.59045529
_cell_formula_units_Z   2
loop_
 _symmetry_equiv_pos_site_id
 _symmetry_equiv_pos_as_xyz
  1  'x, y, z'
loop_
 _atom_site_type_symbol
 _atom_site_label
 _atom_site_symmetry_multiplicity
 _atom_site_fract_x
 _atom_site_fract_y
 _atom_site_fract_z
 _atom_site_occupancy
 _atom_site_charge
Pr  Pr1  1  0.19445000  0.20436000  0.72980000  1.0 2.0717859312
Pr  Pr2  1  0.80555000  0.79564000  0.27020000  1.0 2.0717859312
Pr  Pr3  1  0.93129000  0.16761000  0.79786000  1.0 2.0461444899
Pr  Pr4  1  0.06871000  0.83239000  0.20214000  1.0 2.0414799098
Pr  Pr5  1  0.54200000  0.28871000  0.69591000  1.0 2.0414799098
Pr  Pr6  1  0.45800000  0.71129000  0.30409000  1.0 2.0414799098
Si  Si1  1  0.33131000  0.78983000  0.89306000  1.0 0.6269380196
Si  Si2  1  0.66869000  0.21017000  0.10694000  1.0 0.6269380196
Si  Si3  1  0.14189000  0.67259000  0.60763000  1.0 0.6235016926
Si  Si4  1  0.85811000  0.32741000  0.39237000  1.0 0.6235016926
H  H1  1  0.30100000  0.52510000  0.77250000  1.0 0.1190310177
H  H2  1  0.69900000  0.47490000  0.22750000  1.0 0.1190310177
H  H3  1  0.07860000  0.46960000  0.86350000  1.0 0.1284693022
H  H4  1  0.92140000  0.53040000  0.13650000  1.0 0.1284693022
H  H5  1  0.18800000  0.93590000  0.73580000  1.0 0.1190310177
H  H6  1  0.81200000  0.06410000  0.26420000  1.0 0.1190310177
H  H7  1  0.39870000  0.98980000  0.63980000  1.0 0.1284693022
H  H8  1  0.60130000  0.01020000  0.36020000  1.0 0.1284693022
H  H9  1  0.36600000  0.67760000  0.80370000  1.0 0.1190310177
H  H10  1  0.63400000  0.32240000  0.19630000  1.0 0.1190310177
H  H11  1  0.15040000  0.62450000  0.89880000  1.0 0.1190310177
H  H12  1  0.84960000  0.37550000  0.10120000  1.0 0.1190310177
H  H13  1  0.11970000  0.78240000  0.70400000  1.0 0.1190310177
H  H14  1  0.88030000  0.21760000  0.29600000  1.0 0.1190310177
H  H15  1  0.32450000  0.83380000  0.60370000  1.0 0.1190310177
H  H16  1  0.67550000  0.16620000  0.39630000  1.0 0.1190310177
H  H17  1  0.55530000  0.87460000  0.95300000  1.0 0.1114559486
H  H18  1  0.44470000  0.12540000  0.04700000  1.0 0.1114559486
H  H19  1  0.39070000  0.86140000  0.77980000  1.0 0.1114559486
H  H20  1  0.60930000  0.13860000  0.22020000  1.0 0.1114559486
H  H21  1  0.36880000  0.99310000  0.88700000  1.0 0.1190310177
H  H22  1  0.63120000  0.00690000  0.11300000  1.0 0.1190310177
H  H23  1  0.10610000  0.76360000  0.85010000  1.0 0.1001998491
H  H24  1  0.89390000  0.23640000  0.14990000  1.0 0.1001998491
H  H25  1  0.41930000  0.67340000  0.98240000  1.0 0.1114559486
H  H26  1  0.58070000  0.32660000  0.01760000  1.0 0.1114559486
H  H27  1  0.29930000  0.86740000  0.99670000  1.0 0.1190310177
H  H28  1  0.70070000  0.13260000  0.00330000  1.0 0.1190310177
H  H29  1  0.19190000  0.62190000  0.49970000  1.0 0.1190310177
H  H30  1  0.80810000  0.37810000  0.50030000  1.0 0.1190310177
H  H31  1  0.03020000  0.77500000  0.52510000  1.0 0.1284693022
H  H32  1  0.96980000  0.22500000  0.47490000  1.0 0.1284693022
H  H33  1  0.36330000  0.68490000  0.65720000  1.0 0.1190310177
H  H34  1  0.63670000  0.31510000  0.34280000  1.0 0.1190310177
H  H35  1  0.09860000  0.47260000  0.60180000  1.0 0.1190310177
H  H36  1  0.90140000  0.52740000  0.39820000  1.0 0.1190310177
H  H37  1  0.91870000  0.60430000  0.54870000  1.0 0.1114559486
H  H38  1  0.08130000  0.39570000  0.45130000  1.0 0.1114559486
H  H39  1  0.08020000  0.58530000  0.71840000  1.0 0.1114559486
H  H40  1  0.91980000  0.41470000  0.28160000  1.0 0.1114559486
H  H41  1  0.70160000  0.97310000  0.92310000  1.0 0.1284693022
H  H42  1  0.29840000  0.02690000  0.07690000  1.0 0.1284693022
H  H43  1  0.53460000  0.96010000  0.75170000  1.0 0.1284693022
H  H44  1  0.46540000  0.03990000  0.24830000  1.0 0.1284693022
H  H45  1  0.27370000  0.09070000  0.86410000  1.0 0.1284693022
H  H46  1  0.72630000  0.90930000  0.13590000  1.0 0.1284693022
H  H47  1  0.00870000  0.86510000  0.83200000  1.0 0.1284693022
H  H48  1  0.99130000  0.13490000  0.16800000  1.0 0.1284693022
H  H49  1  0.45390000  0.65510000  0.08640000  1.0 0.1284693022
H  H50  1  0.54610000  0.34490000  0.91360000  1.0 0.1284693022
H  H51  1  0.32870000  0.84780000  0.09990000  1.0 0.1190310177
H  H52  1  0.67130000  0.15220000  0.90010000  1.0 0.1190310177
H  H53  1  0.16750000  0.66360000  0.39880000  1.0 0.1190310177
H  H54  1  0.83250000  0.33640000  0.60120000  1.0 0.1190310177
H  H55  1  0.99330000  0.80750000  0.42120000  1.0 0.1190310177
H  H56  1  0.00670000  0.19250000  0.57880000  1.0 0.1190310177
H  H57  1  0.45440000  0.58690000  0.68090000  1.0 0.1284693022
H  H58  1  0.54560000  0.41310000  0.31910000  1.0 0.1284693022
H  H59  1  0.18580000  0.36460000  0.62660000  1.0 0.1190310177
H  H60  1  0.81420000  0.63540000  0.37340000  1.0 0.1190310177
H  H61  1  0.76590000  0.51950000  0.57750000  1.0 0.1284693022
H  H62  1  0.23410000  0.48050000  0.42250000  1.0 0.1284693022
H  H63  1  0.93080000  0.49460000  0.74520000  1.0 0.1284693022
H  H64  1  0.06920000  0.50540000  0.25480000  1.0 0.1284693022
C  C1  1  0.14190000  0.37760000  0.79260000  1.0 0.6103281224
C  C2  1  0.85810000  0.62240000  0.20740000  1.0 0.6103281224
C  C3  1  0.34680000  0.07920000  0.71290000  1.0 0.6505109712
C  C4  1  0.65320000  0.92080000  0.28710000  1.0 0.6505109712
C  C5  1  0.18200000  0.47990000  0.81360000  1.0 -0.0196300549
C  C6  1  0.81800000  0.52010000  0.18640000  1.0 -0.0196300549
C  C7  1  0.30190000  0.97690000  0.69190000  1.0 -0.0196300549
C  C8  1  0.69810000  0.02310000  0.30810000  1.0 -0.0196300549
C  C9  1  0.26950000  0.54510000  0.79740000  1.0 -0.0900703298
C  C10  1  0.73050000  0.45490000  0.20260000  1.0 -0.0900703298
C  C11  1  0.13700000  0.51090000  0.85210000  1.0 -0.0998792437
C  C12  1  0.86300000  0.48910000  0.14790000  1.0 -0.0998792437
C  C13  1  0.21680000  0.91520000  0.70960000  1.0 -0.0900703298
C  C14  1  0.78320000  0.08480000  0.29040000  1.0 -0.0900703298
C  C15  1  0.34160000  0.94810000  0.65240000  1.0 -0.0900703298
C  C16  1  0.65840000  0.05190000  0.34760000  1.0 -0.0900703298
C  C17  1  0.02555000  0.18210000  0.95887000  1.0 0.5183985277
C  C18  1  0.97445000  0.81790000  0.04113000  1.0 0.5183985277
C  C19  1  0.46600000  0.28770000  0.53890000  1.0 0.5183985277
C  C20  1  0.53400000  0.71230000  0.46110000  1.0 0.5183985277
C  C21  1  0.30970000  0.63570000  0.81700000  1.0 -0.0900703298
C  C22  1  0.69030000  0.36430000  0.18300000  1.0 -0.0900703298
C  C23  1  0.18080000  0.60450000  0.87310000  1.0 -0.0900703298
C  C24  1  0.81920000  0.39550000  0.12690000  1.0 -0.0900703298
C  C25  1  0.17420000  0.82390000  0.68900000  1.0 -0.0823550888
C  C26  1  0.82580000  0.17610000  0.31100000  1.0 -0.0823550888
C  C27  1  0.29570000  0.85390000  0.63020000  1.0 -0.0823550888
C  C28  1  0.70430000  0.14610000  0.36980000  1.0 -0.0823550888
C  C29  1  0.93646000  0.16980000  0.98698000  1.0 -0.2297865109
C  C30  1  0.06354000  0.83020000  0.01302000  1.0 -0.2213972167
C  C31  1  0.54280000  0.26680000  0.51080000  1.0 -0.2821458385
C  C32  1  0.45720000  0.73320000  0.48920000  1.0 -0.2821458385
C  C33  1  0.26750000  0.66830000  0.85721000  1.0 -0.213286958
C  C34  1  0.73250000  0.33170000  0.14279000  1.0 -0.213286958
C  C35  1  0.20870000  0.79070000  0.64703000  1.0 -0.1921706951
C  C36  1  0.79130000  0.20930000  0.35297000  1.0 -0.1921706951
C  C37  1  0.10660000  0.13170000  0.05759000  1.0 0.1001998491
C  C38  1  0.89340000  0.86830000  0.94241000  1.0 0.1001998491
C  C39  1  0.18690000  0.16910000  0.96487000  1.0 0.0883500881
C  C40  1  0.81310000  0.83090000  0.03513000  1.0 0.0883500881
C  C41  1  0.31430000  0.32620000  0.51840000  1.0 0.1001998491
C  C42  1  0.68570000  0.67380000  0.48160000  1.0 0.1001998491
C  C43  1  0.44430000  0.37400000  0.44790000  1.0 0.0557243123
C  C44  1  0.55570000  0.62600000  0.55210000  1.0 0.0557243123
C  C45  1  0.45600000  0.85450000  0.86970000  1.0 -0.2003793523
C  C46  1  0.54400000  0.14550000  0.13030000  1.0 -0.2003793523
C  C47  1  0.24850000  0.86410000  0.87070000  1.0 -0.213286958
C  C48  1  0.75150000  0.13590000  0.12930000  1.0 -0.213286958
C  C49  1  0.35890000  0.77400000  0.97900000  1.0 -0.2003793523
C  C50  1  0.64110000  0.22600000  0.02100000  1.0 -0.2003793523
C  C51  1  0.11640000  0.69700000  0.52440000  1.0 -0.1921706951
C  C52  1  0.88360000  0.30300000  0.47560000  1.0 -0.1921706951
C  C53  1  0.22420000  0.59520000  0.62770000  1.0 -0.1921706951
C  C54  1  0.77580000  0.40480000  0.37230000  1.0 -0.1921706951
C  C55  1  0.01480000  0.60610000  0.63030000  1.0 -0.2003793523
C  C56  1  0.98520000  0.39390000  0.36970000  1.0 -0.2003793523
C  C57  1  0.55070000  0.89050000  0.91230000  1.0 -0.0900703298
C  C58  1  0.44930000  0.10950000  0.08770000  1.0 -0.0900703298
C  C59  1  0.45320000  0.88330000  0.80910000  1.0 -0.0900703298
C  C60  1  0.54680000  0.11670000  0.19090000  1.0 -0.0900703298
C  C61  1  0.29670000  0.96690000  0.87510000  1.0 -0.0823550888
C  C62  1  0.70330000  0.03310000  0.12490000  1.0 -0.0823550888
C  C63  1  0.14020000  0.82870000  0.85390000  1.0 -0.0900703298
C  C64  1  0.85980000  0.17130000  0.14610000  1.0 -0.0900703298
C  C65  1  0.40250000  0.71040000  0.00610000  1.0 -0.0998792437
C  C66  1  0.59750000  0.28960000  0.99390000  1.0 -0.0998792437
C  C67  1  0.33130000  0.82440000  0.01480000  1.0 -0.0900703298
C  C68  1  0.66870000  0.17560000  0.98520000  1.0 -0.0900703298
C  C69  1  0.15440000  0.66210000  0.48510000  1.0 -0.0900703298
C  C70  1  0.84560000  0.33790000  0.51490000  1.0 -0.0900703298
C  C71  1  0.05770000  0.75090000  0.49970000  1.0 -0.0823550888
C  C72  1  0.94230000  0.24910000  0.50030000  1.0 -0.0823550888
C  C73  1  0.32670000  0.62050000  0.65070000  1.0 -0.0823550888
C  C74  1  0.67330000  0.37950000  0.34930000  1.0 -0.0823550888
C  C75  1  0.17010000  0.49450000  0.61820000  1.0 -0.0823550888
C  C76  1  0.82990000  0.50550000  0.38180000  1.0 -0.0823550888
C  C77  1  0.92140000  0.58380000  0.58850000  1.0 -0.0900703298
C  C78  1  0.07860000  0.41620000  0.41150000  1.0 -0.0900703298
C  C79  1  0.01700000  0.57100000  0.68960000  1.0 -0.0900703298
C  C80  1  0.98300000  0.42900000  0.31040000  1.0 -0.0900703298
C  C81  1  0.63860000  0.95010000  0.89430000  1.0 -0.0998792437
C  C82  1  0.36140000  0.04990000  0.10570000  1.0 -0.0998792437
C  C83  1  0.53900000  0.94200000  0.79210000  1.0 -0.0900703298
C  C84  1  0.46100000  0.05800000  0.20790000  1.0 -0.0900703298
C  C85  1  0.24090000  0.02540000  0.86240000  1.0 -0.1105308452
C  C86  1  0.75910000  0.97460000  0.13760000  1.0 -0.1105308452
C  C87  1  0.08090000  0.88960000  0.84230000  1.0 -0.0900703298
C  C88  1  0.91910000  0.11040000  0.15770000  1.0 -0.0900703298
C  C89  1  0.42290000  0.69890000  0.06850000  1.0 -0.0900703298
C  C90  1  0.57710000  0.30110000  0.93150000  1.0 -0.0900703298
C  C91  1  0.34940000  0.81330000  0.07670000  1.0 -0.0900703298
C  C92  1  0.65060000  0.18670000  0.92330000  1.0 -0.0900703298
C  C93  1  0.13790000  0.68590000  0.42380000  1.0 -0.0823550888
C  C94  1  0.86210000  0.31410000  0.57620000  1.0 -0.0823550888
C  C95  1  0.03620000  0.77230000  0.43720000  1.0 -0.0823550888
C  C96  1  0.96380000  0.22770000  0.56280000  1.0 -0.0823550888
C  C97  1  0.38270000  0.56230000  0.66560000  1.0 -0.0900703298
C  C98  1  0.61730000  0.43770000  0.33440000  1.0 -0.0900703298
C  C99  1  0.22190000  0.42910000  0.63290000  1.0 -0.1105308452
C  C100  1  0.77810000  0.57090000  0.36710000  1.0 -0.1105308452
C  C101  1  0.82970000  0.53030000  0.60540000  1.0 -0.0998792437
C  C102  1  0.17030000  0.46970000  0.39460000  1.0 -0.0998792437
C  C103  1  0.92800000  0.51660000  0.70560000  1.0 -0.0900703298
C  C104  1  0.07200000  0.48340000  0.29440000  1.0 -0.0900703298
C  C105  1  0.63280000  0.97490000  0.83460000  1.0 0.0118653911
C  C106  1  0.36720000  0.02510000  0.16540000  1.0 0.0118653911
C  C107  1  0.13240000  0.98530000  0.84680000  1.0 -0.026945268
C  C108  1  0.86760000  0.01470000  0.15320000  1.0 -0.026945268
C  C109  1  0.39740000  0.75230000  0.10400000  1.0 -0.0196300549
C  C110  1  0.60260000  0.24770000  0.89600000  1.0 -0.0196300549
C  C111  1  0.08110000  0.73930000  0.40030000  1.0 -0.026945268
C  C112  1  0.91890000  0.26070000  0.59970000  1.0 -0.026945268
C  C113  1  0.33110000  0.46370000  0.65770000  1.0 -0.0396416628
C  C114  1  0.66890000  0.53630000  0.34230000  1.0 -0.0396416628
C  C115  1  0.83290000  0.49380000  0.66270000  1.0 -0.0033892449
C  C116  1  0.16710000  0.50620000  0.33730000  1.0 -0.0033892449
C  C117  1  0.73130000  0.04840000  0.81860000  1.0 0.5289294167
C  C118  1  0.26870000  0.95160000  0.18140000  1.0 0.5289294167
C  C119  1  0.07200000  0.05020000  0.83210000  1.0 0.6103281224
C  C120  1  0.92800000  0.94980000  0.16790000  1.0 0.6103281224
C  C121  1  0.41440000  0.73850000  0.17130000  1.0 0.5409733399
C  C122  1  0.58560000  0.26150000  0.82870000  1.0 0.5409733399
C  C123  1  0.06550000  0.76550000  0.33460000  1.0 0.5968658968
C  C124  1  0.93450000  0.23450000  0.66540000  1.0 0.5968658968
C  C125  1  0.38770000  0.39780000  0.67720000  1.0 0.6103281224
C  C126  1  0.61230000  0.60220000  0.32280000  1.0 0.6103281224
C  C127  1  0.73280000  0.42930000  0.67840000  1.0 0.5409733399
C  C128  1  0.26720000  0.57070000  0.32160000  1.0 0.5409733399
N  N1  1  0.08470000  0.05880000  0.63870000  1.0 0.7007387324
N  N2  1  0.91530000  0.94120000  0.36130000  1.0 0.7007387324
N  N3  1  0.10342000  0.15760000  0.99421000  1.0 -0.1682298512
N  N4  1  0.89658000  0.84240000  0.00579000  1.0 -0.1682298512
N  N5  1  0.41920000  0.34490000  0.50720000  1.0 -0.1235084005
N  N6  1  0.58080000  0.65510000  0.49280000  1.0 -0.1235084005
O  O1  1  0.19440000  0.35140000  0.76866000  1.0 -0.5800411856
O  O2  1  0.80560000  0.64860000  0.23134000  1.0 -0.5800411856
O  O3  1  0.30000000  0.11010000  0.74106000  1.0 -0.637110825
O  O4  1  0.70000000  0.88990000  0.25894000  1.0 -0.637110825
O  O5  1  0.15360000  0.13780000  0.62512000  1.0 -0.5800411856
O  O6  1  0.84640000  0.86220000  0.37488000  1.0 -0.5800411856
O  O7  1  0.06580000  0.04340000  0.68735000  1.0 -0.4171478705
O  O8  1  0.93420000  0.95660000  0.31265000  1.0 -0.4171478705
O  O9  1  0.33830000  0.26610000  0.82413000  1.0 -0.2469191656
O  O10  1  0.66170000  0.73390000  0.17587000  1.0 -0.2469191656
O  O11  1  0.10540000  0.13220000  0.80822000  1.0 -0.7266271667
O  O12  1  0.89460000  0.86780000  0.19178000  1.0 -0.7266271667
O  O13  1  0.98490000  0.78680000  0.30981000  1.0 -0.7003500715
O  O14  1  0.01510000  0.21320000  0.69019000  1.0 -0.7003500715
O  O15  1  0.34270000  0.31300000  0.68762000  1.0 -0.6563878016
O  O16  1  0.65730000  0.68700000  0.31238000  1.0 -0.6563878016
O  O17  1  0.04470000  0.99720000  0.58660000  1.0 -0.442655246
O  O18  1  0.95530000  0.00280000  0.41340000  1.0 -0.442655246
O  O19  1  0.05310000  0.32860000  0.80089000  1.0 -0.6342430965
O  O20  1  0.94690000  0.67140000  0.19911000  1.0 -0.6342430965
O  O21  1  0.43090000  0.12760000  0.69817000  1.0 -0.6342430965
O  O22  1  0.56910000  0.87240000  0.30183000  1.0 -0.6342430965
O  O23  1  0.88390000  0.03740000  0.71920000  1.0 -0.1805065528
O  O24  1  0.11610000  0.96260000  0.28080000  1.0 -0.1805065528
O  O25  1  0.83700000  0.27690000  0.81424000  1.0 0.0501253072
O  O26  1  0.16300000  0.72310000  0.18576000  1.0 0.0501253072
O  O27  1  0.02540000  0.20550000  0.90563000  1.0 -0.5536077276
O  O28  1  0.97460000  0.79450000  0.09437000  1.0 -0.5536077276
O  O29  1  0.73030000  0.07010000  0.76512000  1.0 -0.4994120554
O  O30  1  0.26970000  0.92990000  0.23488000  1.0 -0.4994120554
O  O31  1  0.81020000  0.07840000  0.86074000  1.0 -0.6079428748
O  O32  1  0.18980000  0.92160000  0.13926000  1.0 -0.6079428748
O  O33  1  0.98260000  0.02380000  0.84520000  1.0 -0.5800411856
O  O34  1  0.01740000  0.97620000  0.15480000  1.0 -0.5800411856
O  O35  1  0.12780000  0.76250000  0.30484000  1.0 -0.5391283389
O  O36  1  0.87220000  0.23750000  0.69516000  1.0 -0.5391283389
O  O37  1  0.65050000  0.19460000  0.67633000  1.0 0.0169965138
O  O38  1  0.34950000  0.80540000  0.32367000  1.0 0.0169965138
O  O39  1  0.44840000  0.25930000  0.58945000  1.0 -0.5736293153
O  O40  1  0.55160000  0.74070000  0.41055000  1.0 -0.5736293153
O  O41  1  0.47180000  0.69190000  0.19748000  1.0 -0.5584602312
O  O42  1  0.52820000  0.30810000  0.80252000  1.0 -0.5584602312
O  O43  1  0.37450000  0.77320000  0.20214000  1.0 -0.5391283389
O  O44  1  0.62550000  0.22680000  0.79786000  1.0 -0.5391283389
O  O45  1  0.48500000  0.42710000  0.68316000  1.0 -0.6079428748
O  O46  1  0.51500000  0.57290000  0.31684000  1.0 -0.6079428748
O  O47  1  0.65520000  0.39950000  0.63491000  1.0 -0.6189678864
O  O48  1  0.34480000  0.60050000  0.36509000  1.0 -0.6189678864
O  O49  1  0.73270000  0.40020000  0.73041000  1.0 -0.5391283389
O  O50  1  0.26730000  0.59980000  0.26959000  1.0 -0.5391283389
