# DDEC6 charges by PACMAN v1.1 (https://github.com/mtap-research/PACMAN-charge/)
data_YIWBIR_FSR_pacman
_symmetry_space_group_name_H-M   'P 1'
_cell_length_a   13.56570000
_cell_length_b   13.56570000
_cell_length_c   21.47120000
_cell_angle_alpha   69.00050000
_cell_angle_beta   111.00000000
_cell_angle_gamma   154.91900000
_symmetry_Int_Tables_number   1
_chemical_formula_structural   ZnH14C30(NO2)2
_chemical_formula_sum   'Zn2 H28 C60 N4 O8'
_cell_volume   1557.99762900
_cell_formula_units_Z   2
loop_
 _symmetry_equiv_pos_site_id
 _symmetry_equiv_pos_as_xyz
  1  'x, y, z'
loop_
 _atom_site_type_symbol
 _atom_site_label
 _atom_site_symmetry_multiplicity
 _atom_site_fract_x
 _atom_site_fract_y
 _atom_site_fract_z
 _atom_site_occupancy
 _atom_site_charge
Zn  Zn1  1  0.31607000  0.31607000  0.75000000  1.0 0.7368345906
Zn  Zn2  1  0.68393000  0.68393000  0.25000000  1.0 0.7368345906
H  H1  1  0.74390000  0.94450000  0.60850000  1.0 0.119270742
H  H2  1  0.94450000  0.74390000  0.89150000  1.0 0.119270742
H  H3  1  0.25610000  0.05550000  0.39150000  1.0 0.119270742
H  H4  1  0.05550000  0.25610000  0.10850000  1.0 0.119270742
H  H5  1  0.49540000  0.82580000  0.52220000  1.0 0.119270742
H  H6  1  0.82580000  0.49540000  0.97780000  1.0 0.119270742
H  H7  1  0.50460000  0.17420000  0.47780000  1.0 0.119270742
H  H8  1  0.17420000  0.50460000  0.02220000  1.0 0.119270742
H  H9  1  0.80010000  0.68710000  0.73920000  1.0 0.1101668452
H  H10  1  0.68710000  0.80010000  0.76080000  1.0 0.1101668452
H  H11  1  0.19990000  0.31290000  0.26080000  1.0 0.1101668452
H  H12  1  0.31290000  0.19990000  0.23920000  1.0 0.1101668452
H  H13  1  0.06030000  0.93990000  0.66210000  1.0 0.1427927663
H  H14  1  0.93990000  0.06030000  0.83790000  1.0 0.1427927663
H  H15  1  0.93970000  0.06010000  0.33790000  1.0 0.1427927663
H  H16  1  0.06010000  0.93970000  0.16210000  1.0 0.1427927663
H  H17  1  0.56620000  0.64800000  0.51860000  1.0 0.1304664662
H  H18  1  0.64800000  0.56620000  0.98140000  1.0 0.1304664662
H  H19  1  0.43380000  0.35200000  0.48140000  1.0 0.1304664662
H  H20  1  0.35200000  0.43380000  0.01860000  1.0 0.1304664662
H  H21  1  0.31550000  0.40410000  0.60010000  1.0 0.1101668452
H  H22  1  0.40410000  0.31550000  0.89990000  1.0 0.1101668452
H  H23  1  0.68450000  0.59590000  0.39990000  1.0 0.1101668452
H  H24  1  0.59590000  0.68450000  0.10010000  1.0 0.1101668452
H  H25  1  0.16190000  0.08690000  0.54810000  1.0 0.119270742
H  H26  1  0.08690000  0.16190000  0.95190000  1.0 0.119270742
H  H27  1  0.83810000  0.91310000  0.45190000  1.0 0.119270742
H  H28  1  0.91310000  0.83810000  0.04810000  1.0 0.119270742
C  C1  1  0.07570000  0.28950000  0.68480000  1.0 0.5292874922
C  C2  1  0.28950000  0.07570000  0.81520000  1.0 0.5292874922
C  C3  1  0.92430000  0.71050000  0.31520000  1.0 0.5292874922
C  C4  1  0.71050000  0.92430000  0.18480000  1.0 0.5292874922
C  C5  1  0.90550000  0.20450000  0.63000000  1.0 0.0006995235
C  C6  1  0.20450000  0.90550000  0.87000000  1.0 0.0006995235
C  C7  1  0.09450000  0.79550000  0.37000000  1.0 0.0006995235
C  C8  1  0.79550000  0.09450000  0.13000000  1.0 0.0006995235
C  C9  1  0.74920000  0.02220000  0.59680000  1.0 -0.162261034
C  C10  1  0.02220000  0.74920000  0.90320000  1.0 -0.162261034
C  C11  1  0.25080000  0.97780000  0.40320000  1.0 -0.162261034
C  C12  1  0.97780000  0.25080000  0.09680000  1.0 -0.162261034
C  C13  1  0.59560000  0.94780000  0.54540000  1.0 -0.200336958
C  C14  1  0.94780000  0.59560000  0.95460000  1.0 -0.200336958
C  C15  1  0.40440000  0.05220000  0.45460000  1.0 -0.200336958
C  C16  1  0.05220000  0.40440000  0.04540000  1.0 -0.200336958
C  C17  1  0.58410000  0.04190000  0.52750000  1.0 0.0762191018
C  C18  1  0.04190000  0.58410000  0.97250000  1.0 0.0762191018
C  C19  1  0.41590000  0.95810000  0.47250000  1.0 0.0762191018
C  C20  1  0.95810000  0.41590000  0.02750000  1.0 0.0762191018
C  C21  1  0.67980000  0.16620000  0.57490000  1.0 -0.0276600159
C  C22  1  0.16620000  0.67980000  0.92510000  1.0 -0.0276600159
C  C23  1  0.32020000  0.83380000  0.42510000  1.0 -0.0276600159
C  C24  1  0.83380000  0.32020000  0.07490000  1.0 -0.0276600159
C  C25  1  0.84160000  0.25040000  0.62630000  1.0 0.0639441187
C  C26  1  0.25040000  0.84160000  0.87370000  1.0 0.0639441187
C  C27  1  0.15840000  0.74960000  0.37370000  1.0 0.0639441187
C  C28  1  0.74960000  0.15840000  0.12630000  1.0 0.0695362617
C  C29  1  0.75300000  0.68060000  0.69420000  1.0 0.099242573
C  C30  1  0.68060000  0.75300000  0.80580000  1.0 0.099242573
C  C31  1  0.24700000  0.31940000  0.30580000  1.0 0.099242573
C  C32  1  0.31940000  0.24700000  0.19420000  1.0 0.099242573
C  C33  1  0.90980000  0.83200000  0.64820000  1.0 -0.1859971384
C  C34  1  0.83200000  0.90980000  0.85180000  1.0 -0.1859971384
C  C35  1  0.09020000  0.16800000  0.35180000  1.0 -0.1859971384
C  C36  1  0.16800000  0.09020000  0.14820000  1.0 -0.1859971384
C  C37  1  0.84440000  0.82520000  0.58070000  1.0 0.1596783598
C  C38  1  0.82520000  0.84440000  0.91930000  1.0 0.1596783598
C  C39  1  0.15560000  0.17480000  0.41930000  1.0 0.1596783598
C  C40  1  0.17480000  0.15560000  0.08070000  1.0 0.1596783598
C  C41  1  0.61770000  0.66010000  0.56340000  1.0 -0.200336958
C  C42  1  0.66010000  0.61770000  0.93660000  1.0 -0.200336958
C  C43  1  0.38230000  0.33990000  0.43660000  1.0 -0.200336958
C  C44  1  0.33990000  0.38230000  0.06340000  1.0 -0.200336958
C  C45  1  0.46650000  0.51230000  0.61250000  1.0 0.0695362617
C  C46  1  0.51230000  0.46650000  0.88750000  1.0 0.0695362617
C  C47  1  0.53350000  0.48770000  0.38750000  1.0 0.0695362617
C  C48  1  0.48770000  0.53350000  0.11250000  1.0 0.0695362617
C  C49  1  0.01740000  0.99020000  0.53180000  1.0 -0.1439251627
C  C50  1  0.99020000  0.01740000  0.96820000  1.0 -0.1439251627
C  C51  1  0.98260000  0.00980000  0.46820000  1.0 -0.1439251627
C  C52  1  0.00980000  0.98260000  0.03180000  1.0 -0.1439251627
C  C53  1  0.81350000  0.29050000  0.54170000  1.0 -0.0392804785
C  C54  1  0.29050000  0.81350000  0.95830000  1.0 -0.0392804785
C  C55  1  0.18650000  0.70950000  0.45830000  1.0 -0.0392804785
C  C56  1  0.70950000  0.18650000  0.04170000  1.0 -0.0392804785
C  C57  1  0.96660000  0.36540000  0.59240000  1.0 -0.0276600159
C  C58  1  0.36540000  0.96660000  0.90760000  1.0 -0.0276600159
C  C59  1  0.03340000  0.63460000  0.40760000  1.0 -0.0276600159
C  C60  1  0.63460000  0.03340000  0.09240000  1.0 -0.0276600159
N  N1  1  0.53365000  0.52215000  0.67789000  1.0 -0.2422787758
N  N2  1  0.52215000  0.53365000  0.82211000  1.0 -0.2422787758
N  N3  1  0.46635000  0.47785000  0.32211000  1.0 -0.2422787758
N  N4  1  0.47785000  0.46635000  0.17789000  1.0 -0.2422787758
O  O1  1  0.06350000  0.18190000  0.69715000  1.0 -0.5137477169
O  O2  1  0.18190000  0.06350000  0.80285000  1.0 -0.5137477169
O  O3  1  0.93650000  0.81810000  0.30285000  1.0 -0.5137477169
O  O4  1  0.81810000  0.93650000  0.19715000  1.0 -0.5137477169
O  O5  1  0.21970000  0.45790000  0.71200000  1.0 -0.4763436566
O  O6  1  0.45790000  0.21970000  0.78800000  1.0 -0.4763436566
O  O7  1  0.78030000  0.54210000  0.28800000  1.0 -0.4763436566
O  O8  1  0.54210000  0.78030000  0.21200000  1.0 -0.4763436566
