# DDEC6 charges by PACMAN v1.1 (https://github.com/mtap-research/PACMAN-charge/)
data_YIWLUL_FSR_pacman
_symmetry_space_group_name_H-M   'P 1'
_cell_length_a   8.66400000
_cell_length_b   11.11500000
_cell_length_c   13.28700000
_cell_angle_alpha   90.00000000
_cell_angle_beta   90.00000000
_cell_angle_gamma   90.00000000
_symmetry_Int_Tables_number   1
_chemical_formula_structural   Cd3(C4N3)2
_chemical_formula_sum   'Cd6 C16 N12'
_cell_volume   1279.54288332
_cell_formula_units_Z   2
loop_
 _symmetry_equiv_pos_site_id
 _symmetry_equiv_pos_as_xyz
  1  'x, y, z'
loop_
 _atom_site_type_symbol
 _atom_site_label
 _atom_site_symmetry_multiplicity
 _atom_site_fract_x
 _atom_site_fract_y
 _atom_site_fract_z
 _atom_site_occupancy
 _atom_site_charge
Cd  Cd1  1  0.00000000  0.22899000  0.00000000  1.0 0.9511689425
Cd  Cd2  1  0.50000000  0.77101000  0.50000000  1.0 0.9511689425
Cd  Cd3  1  0.50000000  0.92600000  0.90320000  1.0 0.4568207592
Cd  Cd4  1  0.00000000  0.07400000  0.40320000  1.0 0.4568207592
Cd  Cd5  1  0.50000000  0.50670000  0.13500000  1.0 0.4299733222
Cd  Cd6  1  0.00000000  0.49330000  0.63500000  1.0 0.4299733222
C  C1  1  0.29300000  0.03500000  0.93720000  1.0 0.103483154
C  C2  1  0.70700000  0.03500000  0.93720000  1.0 0.103483154
C  C3  1  0.79300000  0.96500000  0.43720000  1.0 0.103483154
C  C4  1  0.20700000  0.96500000  0.43720000  1.0 0.103483154
C  C5  1  0.28900000  0.41300000  0.08900000  1.0 0.0895023749
C  C6  1  0.71100000  0.41300000  0.08900000  1.0 0.0895023749
C  C7  1  0.78900000  0.58700000  0.58900000  1.0 0.0895023749
C  C8  1  0.21100000  0.58700000  0.58900000  1.0 0.0895023749
C  C9  1  0.00000000  0.11700000  0.24000000  1.0 0.1205718995
C  C10  1  0.50000000  0.88300000  0.74000000  1.0 0.1074852564
C  C11  1  0.00000000  0.39000000  0.77600000  1.0 0.1074852564
C  C12  1  0.50000000  0.61000000  0.27600000  1.0 0.103483154
C  C13  1  0.50000000  0.75700000  0.98600000  1.0 -0.2366351157
C  C14  1  0.00000000  0.24300000  0.48600000  1.0 -0.2366351157
C  C15  1  0.50000000  0.67200000  0.03500000  1.0 -0.1281443059
C  C16  1  0.00000000  0.32800000  0.53500000  1.0 -0.1281443059
N  N1  1  0.19100000  0.09600000  0.95190000  1.0 -0.3643769839
N  N2  1  0.80900000  0.09600000  0.95190000  1.0 -0.368583403
N  N3  1  0.69100000  0.90400000  0.45190000  1.0 -0.3643769839
N  N4  1  0.30900000  0.90400000  0.45190000  1.0 -0.3643769839
N  N5  1  0.19000000  0.36100000  0.05800000  1.0 -0.328441137
N  N6  1  0.81000000  0.36100000  0.05800000  1.0 -0.328441137
N  N7  1  0.69000000  0.63900000  0.55800000  1.0 -0.328441137
N  N8  1  0.31000000  0.63900000  0.55800000  1.0 -0.328441137
N  N9  1  0.00000000  0.13900000  0.16100000  1.0 -0.328441137
N  N10  1  0.50000000  0.86100000  0.66100000  1.0 -0.3162480413
N  N11  1  0.00000000  0.33300000  0.84900000  1.0 -0.368583403
N  N12  1  0.50000000  0.66700000  0.34900000  1.0 -0.368583403
