# DDEC6 charges by PACMAN v1.1 (https://github.com/mtap-research/PACMAN-charge/)
data_YIWMIA_ASR_pacman
_symmetry_space_group_name_H-M   'P 1'
_cell_length_a   8.87500000
_cell_length_b   13.84300000
_cell_length_c   21.93400000
_cell_angle_alpha   90.00000000
_cell_angle_beta   90.00000000
_cell_angle_gamma   90.00000000
_symmetry_Int_Tables_number   1
_chemical_formula_structural   Cd3(C4N3)2
_chemical_formula_sum   'Cd12 C32 N24'
_cell_volume   2694.73721275
_cell_formula_units_Z   4
loop_
 _symmetry_equiv_pos_site_id
 _symmetry_equiv_pos_as_xyz
  1  'x, y, z'
loop_
 _atom_site_type_symbol
 _atom_site_label
 _atom_site_symmetry_multiplicity
 _atom_site_fract_x
 _atom_site_fract_y
 _atom_site_fract_z
 _atom_site_occupancy
 _atom_site_charge
Cd  Cd1  1  0.25000000  0.18550000  0.63070000  1.0 0.9225253927
Cd  Cd2  1  0.75000000  0.81450000  0.36930000  1.0 0.9266550111
Cd  Cd3  1  0.25000000  0.31450000  0.13070000  1.0 0.9225253927
Cd  Cd4  1  0.75000000  0.68550000  0.86930000  1.0 0.9266550111
Cd  Cd5  1  0.75000000  0.06610000  0.77280000  1.0 0.4526165442
Cd  Cd6  1  0.25000000  0.93390000  0.22720000  1.0 0.4526165442
Cd  Cd7  1  0.75000000  0.43390000  0.27280000  1.0 0.4526165442
Cd  Cd8  1  0.25000000  0.56610000  0.72720000  1.0 0.4526165442
Cd  Cd9  1  0.75000000  0.18360000  0.47640000  1.0 0.4412940161
Cd  Cd10  1  0.25000000  0.81640000  0.52360000  1.0 0.4412940161
Cd  Cd11  1  0.75000000  0.31640000  0.97640000  1.0 0.4275068359
Cd  Cd12  1  0.25000000  0.68360000  0.02360000  1.0 0.4275068359
C  C1  1  0.95000000  0.20900000  0.53100000  1.0 0.0793144887
C  C2  1  0.45000000  0.79100000  0.46900000  1.0 0.0793144887
C  C3  1  0.55000000  0.29100000  0.03100000  1.0 0.0793144887
C  C4  1  0.05000000  0.70900000  0.96900000  1.0 0.0793144887
C  C5  1  0.05000000  0.79100000  0.46900000  1.0 0.0793144887
C  C6  1  0.55000000  0.20900000  0.53100000  1.0 0.0793144887
C  C7  1  0.45000000  0.70900000  0.96900000  1.0 0.0793144887
C  C8  1  0.95000000  0.29100000  0.03100000  1.0 0.0793144887
C  C9  1  0.95300000  0.11300000  0.72600000  1.0 0.0793144887
C  C10  1  0.45300000  0.88700000  0.27400000  1.0 0.0793144887
C  C11  1  0.54700000  0.38700000  0.22600000  1.0 0.0793144887
C  C12  1  0.04700000  0.61300000  0.77400000  1.0 0.0793144887
C  C13  1  0.04700000  0.88700000  0.27400000  1.0 0.0793144887
C  C14  1  0.54700000  0.11300000  0.72600000  1.0 0.0793144887
C  C15  1  0.45300000  0.61300000  0.77400000  1.0 0.0793144887
C  C16  1  0.95300000  0.38700000  0.22600000  1.0 0.0793144887
C  C17  1  0.25000000  0.95800000  0.56600000  1.0 0.0721327754
C  C18  1  0.75000000  0.04200000  0.43400000  1.0 0.0721327754
C  C19  1  0.25000000  0.54200000  0.06600000  1.0 0.0721327754
C  C20  1  0.75000000  0.45800000  0.93400000  1.0 0.0721327754
C  C21  1  0.25000000  0.41800000  0.69200000  1.0 0.1030225919
C  C22  1  0.75000000  0.58200000  0.30800000  1.0 0.1090604382
C  C23  1  0.25000000  0.08200000  0.19200000  1.0 0.1030225919
C  C24  1  0.75000000  0.91800000  0.80800000  1.0 0.1090604382
C  C25  1  0.75000000  0.28300000  0.38900000  1.0 -0.0893286841
C  C26  1  0.25000000  0.71700000  0.61100000  1.0 -0.0893286841
C  C27  1  0.75000000  0.21700000  0.88900000  1.0 -0.0893286841
C  C28  1  0.25000000  0.78300000  0.11100000  1.0 -0.0893286841
C  C29  1  0.75000000  0.16700000  0.85100000  1.0 -0.1890293306
C  C30  1  0.25000000  0.83300000  0.14900000  1.0 -0.1890293306
C  C31  1  0.75000000  0.33300000  0.35100000  1.0 -0.1890293306
C  C32  1  0.25000000  0.66700000  0.64900000  1.0 -0.1890293306
N  N1  1  0.04600000  0.21800000  0.56280000  1.0 -0.3367923971
N  N2  1  0.54600000  0.78200000  0.43720000  1.0 -0.3367923971
N  N3  1  0.45400000  0.28200000  0.06280000  1.0 -0.3300044868
N  N4  1  0.95400000  0.71800000  0.93720000  1.0 -0.3367923971
N  N5  1  0.95400000  0.78200000  0.43720000  1.0 -0.3367923971
N  N6  1  0.45400000  0.21800000  0.56280000  1.0 -0.3367923971
N  N7  1  0.54600000  0.71800000  0.93720000  1.0 -0.3367923971
N  N8  1  0.04600000  0.28200000  0.06280000  1.0 -0.3300044868
N  N9  1  0.05600000  0.14000000  0.70300000  1.0 -0.3300044868
N  N10  1  0.55600000  0.86000000  0.29700000  1.0 -0.3300044868
N  N11  1  0.44400000  0.36000000  0.20300000  1.0 -0.3367923971
N  N12  1  0.94400000  0.64000000  0.79700000  1.0 -0.3367923971
N  N13  1  0.94400000  0.86000000  0.29700000  1.0 -0.3300044868
N  N14  1  0.44400000  0.14000000  0.70300000  1.0 -0.3300044868
N  N15  1  0.55600000  0.64000000  0.79700000  1.0 -0.3367923971
N  N16  1  0.05600000  0.36000000  0.20300000  1.0 -0.3367923971
N  N17  1  0.25000000  0.02800000  0.59200000  1.0 -0.3367923971
N  N18  1  0.75000000  0.97200000  0.40800000  1.0 -0.3367923971
N  N19  1  0.25000000  0.47200000  0.09200000  1.0 -0.3367923971
N  N20  1  0.75000000  0.52800000  0.90800000  1.0 -0.3367923971
N  N21  1  0.25000000  0.34700000  0.67000000  1.0 -0.3530796402
N  N22  1  0.75000000  0.65300000  0.33000000  1.0 -0.3603662087
N  N23  1  0.25000000  0.15300000  0.17000000  1.0 -0.3530796402
N  N24  1  0.75000000  0.84700000  0.83000000  1.0 -0.3530796402
