# DDEC6 charges by PACMAN v1.1 (https://github.com/mtap-research/PACMAN-charge/)
data_YIWMUM_FSR_pacman
_symmetry_space_group_name_H-M   'P 1'
_cell_length_a   8.84600000
_cell_length_b   13.29700000
_cell_length_c   22.33000000
_cell_angle_alpha   90.00000000
_cell_angle_beta   90.00000000
_cell_angle_gamma   90.00000000
_symmetry_Int_Tables_number   1
_chemical_formula_structural   Cd3(C4N3)2
_chemical_formula_sum   'Cd12 C32 N24'
_cell_volume   2626.57210046
_cell_formula_units_Z   4
loop_
 _symmetry_equiv_pos_site_id
 _symmetry_equiv_pos_as_xyz
  1  'x, y, z'
loop_
 _atom_site_type_symbol
 _atom_site_label
 _atom_site_symmetry_multiplicity
 _atom_site_fract_x
 _atom_site_fract_y
 _atom_site_fract_z
 _atom_site_occupancy
 _atom_site_charge
Cd  Cd1  1  0.25000000  0.15943000  0.64605000  1.0 0.9595669922
Cd  Cd2  1  0.75000000  0.84057000  0.35395000  1.0 0.9595669922
Cd  Cd3  1  0.25000000  0.34057000  0.14605000  1.0 0.9595669922
Cd  Cd4  1  0.75000000  0.65943000  0.85395000  1.0 0.9595669922
Cd  Cd5  1  0.75000000  0.07082000  0.79318000  1.0 0.4347068188
Cd  Cd6  1  0.25000000  0.92918000  0.20682000  1.0 0.4347068188
Cd  Cd7  1  0.75000000  0.42918000  0.29318000  1.0 0.4347068188
Cd  Cd8  1  0.25000000  0.57082000  0.70682000  1.0 0.4347068188
Cd  Cd9  1  0.75000000  0.19339000  0.49563000  1.0 0.4474532273
Cd  Cd10  1  0.25000000  0.80661000  0.50437000  1.0 0.4474532273
Cd  Cd11  1  0.75000000  0.30661000  0.99563000  1.0 0.4474532273
Cd  Cd12  1  0.25000000  0.69339000  0.00437000  1.0 0.4474532273
C  C1  1  0.95790000  0.20000000  0.54830000  1.0 0.0831435103
C  C2  1  0.45790000  0.80000000  0.45170000  1.0 0.0831435103
C  C3  1  0.54210000  0.30000000  0.04830000  1.0 0.0831435103
C  C4  1  0.04210000  0.70000000  0.95170000  1.0 0.0831435103
C  C5  1  0.04210000  0.80000000  0.45170000  1.0 0.0831435103
C  C6  1  0.54210000  0.20000000  0.54830000  1.0 0.0831435103
C  C7  1  0.45790000  0.70000000  0.95170000  1.0 0.0831435103
C  C8  1  0.95790000  0.30000000  0.04830000  1.0 0.0831435103
C  C9  1  0.95760000  0.10690000  0.74190000  1.0 0.1114816502
C  C10  1  0.45760000  0.89310000  0.25810000  1.0 0.1114816502
C  C11  1  0.54240000  0.39310000  0.24190000  1.0 0.1114816502
C  C12  1  0.04240000  0.60690000  0.75810000  1.0 0.1114816502
C  C13  1  0.04240000  0.89310000  0.25810000  1.0 0.1114816502
C  C14  1  0.54240000  0.10690000  0.74190000  1.0 0.1114816502
C  C15  1  0.45760000  0.60690000  0.75810000  1.0 0.1114816502
C  C16  1  0.95760000  0.39310000  0.24190000  1.0 0.1114816502
C  C17  1  0.25000000  0.93980000  0.56640000  1.0 0.1381860789
C  C18  1  0.75000000  0.06020000  0.43360000  1.0 0.1381860789
C  C19  1  0.25000000  0.56020000  0.06640000  1.0 0.1381860789
C  C20  1  0.75000000  0.43980000  0.93360000  1.0 0.1381860789
C  C21  1  0.25000000  0.40660000  0.68770000  1.0 0.1237203483
C  C22  1  0.75000000  0.59340000  0.31230000  1.0 0.1237203483
C  C23  1  0.25000000  0.09340000  0.18770000  1.0 0.1237203483
C  C24  1  0.75000000  0.90660000  0.81230000  1.0 0.1237203483
C  C25  1  0.75000000  0.30750000  0.42410000  1.0 -0.1634875171
C  C26  1  0.25000000  0.69250000  0.57590000  1.0 -0.1634875171
C  C27  1  0.75000000  0.19250000  0.92410000  1.0 -0.1651940975
C  C28  1  0.25000000  0.80750000  0.07590000  1.0 -0.1634875171
C  C29  1  0.75000000  0.15060000  0.87960000  1.0 -0.1960675303
C  C30  1  0.25000000  0.84940000  0.12040000  1.0 -0.194202419
C  C31  1  0.75000000  0.34940000  0.37960000  1.0 -0.1960675303
C  C32  1  0.25000000  0.65060000  0.62040000  1.0 -0.194202419
N  N1  1  0.06170000  0.19770000  0.57760000  1.0 -0.3492281917
N  N2  1  0.56170000  0.80230000  0.42240000  1.0 -0.3492281917
N  N3  1  0.43830000  0.30230000  0.07760000  1.0 -0.3492281917
N  N4  1  0.93830000  0.69770000  0.92240000  1.0 -0.3492281917
N  N5  1  0.93830000  0.80230000  0.42240000  1.0 -0.3492281917
N  N6  1  0.43830000  0.19770000  0.57760000  1.0 -0.3492281917
N  N7  1  0.56170000  0.69770000  0.92240000  1.0 -0.3492281917
N  N8  1  0.06170000  0.30230000  0.07760000  1.0 -0.3492281917
N  N9  1  0.06140000  0.12170000  0.71450000  1.0 -0.3640128854
N  N10  1  0.56140000  0.87830000  0.28550000  1.0 -0.3656888339
N  N11  1  0.43860000  0.37830000  0.21450000  1.0 -0.3656888339
N  N12  1  0.93860000  0.62170000  0.78550000  1.0 -0.3656888339
N  N13  1  0.93860000  0.87830000  0.28550000  1.0 -0.3656888339
N  N14  1  0.43860000  0.12170000  0.71450000  1.0 -0.3656888339
N  N15  1  0.56140000  0.62170000  0.78550000  1.0 -0.3656888339
N  N16  1  0.06140000  0.37830000  0.21450000  1.0 -0.3656888339
N  N17  1  0.25000000  0.00080000  0.59940000  1.0 -0.3399877134
N  N18  1  0.75000000  0.99920000  0.40060000  1.0 -0.3399877134
N  N19  1  0.25000000  0.49920000  0.09940000  1.0 -0.3399877134
N  N20  1  0.75000000  0.50080000  0.90060000  1.0 -0.3399877134
N  N21  1  0.25000000  0.32430000  0.67890000  1.0 -0.3640128854
N  N22  1  0.75000000  0.67570000  0.32110000  1.0 -0.3656888339
N  N23  1  0.25000000  0.17570000  0.17890000  1.0 -0.3640128854
N  N24  1  0.75000000  0.82430000  0.82110000  1.0 -0.3640128854
