# DDEC6 charges by PACMAN v1.1 (https://github.com/mtap-research/PACMAN-charge/)
data_YIWNUN_ASR_pacman
_symmetry_space_group_name_H-M   'P 1'
_cell_length_a   8.71400000
_cell_length_b   8.71400000
_cell_length_c   20.43700000
_cell_angle_alpha   90.00000000
_cell_angle_beta   90.00000000
_cell_angle_gamma   120.00000000
_symmetry_Int_Tables_number   1
_chemical_formula_structural   Cd3(C4N3)2
_chemical_formula_sum   'Cd6 C16 N12'
_cell_volume   1343.94930744
_cell_formula_units_Z   2
loop_
 _symmetry_equiv_pos_site_id
 _symmetry_equiv_pos_as_xyz
  1  'x, y, z'
loop_
 _atom_site_type_symbol
 _atom_site_label
 _atom_site_symmetry_multiplicity
 _atom_site_fract_x
 _atom_site_fract_y
 _atom_site_fract_z
 _atom_site_occupancy
 _atom_site_charge
Cd  Cd1  1  0.00000000  0.00000000  0.00000000  1.0 0.9556379334
Cd  Cd2  1  0.00000000  0.00000000  0.50000000  1.0 0.9526247398
Cd  Cd3  1  0.33333333  0.66666667  0.11958000  1.0 0.4573700295
Cd  Cd4  1  0.66666667  0.33333333  0.61958000  1.0 0.450426297
Cd  Cd5  1  0.33333333  0.66666667  0.38042000  1.0 0.4573700295
Cd  Cd6  1  0.66666667  0.33333333  0.88042000  1.0 0.450426297
C  C1  1  0.33333333  0.66666667  0.22340000  1.0 -0.1806794762
C  C2  1  0.66666667  0.33333333  0.72340000  1.0 -0.1806794762
C  C3  1  0.33333333  0.66666667  0.27660000  1.0 -0.1806794762
C  C4  1  0.66666667  0.33333333  0.77660000  1.0 -0.1806794762
C  C5  1  0.19500000  0.39000000  0.08540000  1.0 0.0768170683
C  C6  1  0.80500000  0.19500000  0.58540000  1.0 0.073303254
C  C7  1  0.61000000  0.80500000  0.41460000  1.0 0.073303254
C  C8  1  0.61000000  0.80500000  0.08540000  1.0 0.0768170683
C  C9  1  0.80500000  0.61000000  0.91460000  1.0 0.0768170683
C  C10  1  0.80500000  0.61000000  0.58540000  1.0 0.073303254
C  C11  1  0.19500000  0.80500000  0.41460000  1.0 0.073303254
C  C12  1  0.19500000  0.80500000  0.08540000  1.0 0.0768170683
C  C13  1  0.39000000  0.19500000  0.91460000  1.0 0.0768170683
C  C14  1  0.39000000  0.19500000  0.58540000  1.0 0.073303254
C  C15  1  0.19500000  0.39000000  0.41460000  1.0 0.073303254
C  C16  1  0.80500000  0.19500000  0.91460000  1.0 0.0768170683
N  N1  1  0.12750000  0.25500000  0.06180000  1.0 -0.3267395879
N  N2  1  0.87250000  0.12750000  0.56180000  1.0 -0.3235703046
N  N3  1  0.74500000  0.87250000  0.43820000  1.0 -0.3235703046
N  N4  1  0.74500000  0.87250000  0.06180000  1.0 -0.3267395879
N  N5  1  0.87250000  0.74500000  0.93820000  1.0 -0.3267395879
N  N6  1  0.87250000  0.74500000  0.56180000  1.0 -0.3235703046
N  N7  1  0.12750000  0.87250000  0.43820000  1.0 -0.3235703046
N  N8  1  0.12750000  0.87250000  0.06180000  1.0 -0.3267395879
N  N9  1  0.25500000  0.12750000  0.93820000  1.0 -0.3267395879
N  N10  1  0.25500000  0.12750000  0.56180000  1.0 -0.3235703046
N  N11  1  0.12750000  0.25500000  0.43820000  1.0 -0.3235703046
N  N12  1  0.87250000  0.12750000  0.93820000  1.0 -0.3267395879
