# DDEC6 charges by PACMAN v1.1 (https://github.com/mtap-research/PACMAN-charge/)
data_YIWNAT_FSR_pacman
_symmetry_space_group_name_H-M   'P 1'
_cell_length_a   8.86800000
_cell_length_b   13.48900000
_cell_length_c   22.25600000
_cell_angle_alpha   90.00000000
_cell_angle_beta   90.00000000
_cell_angle_gamma   90.00000000
_symmetry_Int_Tables_number   1
_chemical_formula_structural   Cd3(C4N3)2
_chemical_formula_sum   'Cd12 C32 N24'
_cell_volume   2662.27277971
_cell_formula_units_Z   4
loop_
 _symmetry_equiv_pos_site_id
 _symmetry_equiv_pos_as_xyz
  1  'x, y, z'
loop_
 _atom_site_type_symbol
 _atom_site_label
 _atom_site_symmetry_multiplicity
 _atom_site_fract_x
 _atom_site_fract_y
 _atom_site_fract_z
 _atom_site_occupancy
 _atom_site_charge
Cd  Cd1  1  0.25000000  0.16310000  0.64225000  1.0 0.9326632262
Cd  Cd2  1  0.75000000  0.83690000  0.35775000  1.0 0.94066058
Cd  Cd3  1  0.25000000  0.33690000  0.14225000  1.0 0.94066058
Cd  Cd4  1  0.75000000  0.66310000  0.85775000  1.0 0.94066058
Cd  Cd5  1  0.75000000  0.06619000  0.78819000  1.0 0.4721087158
Cd  Cd6  1  0.25000000  0.93381000  0.21181000  1.0 0.4721087158
Cd  Cd7  1  0.75000000  0.43381000  0.28819000  1.0 0.4721087158
Cd  Cd8  1  0.25000000  0.56619000  0.71181000  1.0 0.4721087158
Cd  Cd9  1  0.75000000  0.19370000  0.49165000  1.0 0.4227023363
Cd  Cd10  1  0.25000000  0.80630000  0.50835000  1.0 0.4227023363
Cd  Cd11  1  0.75000000  0.30630000  0.99165000  1.0 0.4227023363
Cd  Cd12  1  0.25000000  0.69370000  0.00835000  1.0 0.4227023363
C  C1  1  0.95800000  0.20200000  0.54430000  1.0 0.1008768015
C  C2  1  0.45800000  0.79800000  0.45570000  1.0 0.1008768015
C  C3  1  0.54200000  0.29800000  0.04430000  1.0 0.1008768015
C  C4  1  0.04200000  0.70200000  0.95570000  1.0 0.1008768015
C  C5  1  0.04200000  0.79800000  0.45570000  1.0 0.1008768015
C  C6  1  0.54200000  0.20200000  0.54430000  1.0 0.1008768015
C  C7  1  0.45800000  0.70200000  0.95570000  1.0 0.1008768015
C  C8  1  0.95800000  0.29800000  0.04430000  1.0 0.1008768015
C  C9  1  0.95700000  0.10080000  0.73710000  1.0 0.0804881841
C  C10  1  0.45700000  0.89920000  0.26290000  1.0 0.0748874784
C  C11  1  0.54300000  0.39920000  0.23710000  1.0 0.0804881841
C  C12  1  0.04300000  0.60080000  0.76290000  1.0 0.0804881841
C  C13  1  0.04300000  0.89920000  0.26290000  1.0 0.0748874784
C  C14  1  0.54300000  0.10080000  0.73710000  1.0 0.0804881841
C  C15  1  0.45700000  0.60080000  0.76290000  1.0 0.0804881841
C  C16  1  0.95700000  0.39920000  0.23710000  1.0 0.0804881841
C  C17  1  0.25000000  0.94400000  0.56700000  1.0 0.1620696873
C  C18  1  0.75000000  0.05600000  0.43300000  1.0 0.1700388531
C  C19  1  0.25000000  0.55600000  0.06700000  1.0 0.1700388531
C  C20  1  0.75000000  0.44400000  0.93300000  1.0 0.1700388531
C  C21  1  0.25000000  0.40500000  0.68970000  1.0 0.1008768015
C  C22  1  0.75000000  0.59500000  0.31030000  1.0 0.1008768015
C  C23  1  0.25000000  0.09500000  0.18970000  1.0 0.1081701309
C  C24  1  0.75000000  0.90500000  0.81030000  1.0 0.1081701309
C  C25  1  0.75000000  0.30400000  0.41290000  1.0 -0.0791790731
C  C26  1  0.25000000  0.69600000  0.58710000  1.0 -0.0703570865
C  C27  1  0.75000000  0.19600000  0.91290000  1.0 -0.0703570865
C  C28  1  0.25000000  0.80400000  0.08710000  1.0 -0.0703570865
C  C29  1  0.75000000  0.15200000  0.87020000  1.0 -0.2691077003
C  C30  1  0.25000000  0.84800000  0.12980000  1.0 -0.2624399125
C  C31  1  0.75000000  0.34800000  0.37020000  1.0 -0.2691077003
C  C32  1  0.25000000  0.65200000  0.62980000  1.0 -0.2691077003
N  N1  1  0.06300000  0.20290000  0.57220000  1.0 -0.3407310207
N  N2  1  0.56300000  0.79710000  0.42780000  1.0 -0.3407310207
N  N3  1  0.43700000  0.29710000  0.07220000  1.0 -0.3407310207
N  N4  1  0.93700000  0.70290000  0.92780000  1.0 -0.3476439972
N  N5  1  0.93700000  0.79710000  0.42780000  1.0 -0.3407310207
N  N6  1  0.43700000  0.20290000  0.57220000  1.0 -0.3407310207
N  N7  1  0.56300000  0.70290000  0.92780000  1.0 -0.3476439972
N  N8  1  0.06300000  0.29710000  0.07220000  1.0 -0.3407310207
N  N9  1  0.06100000  0.12040000  0.70940000  1.0 -0.3590939477
N  N10  1  0.56100000  0.87960000  0.29060000  1.0 -0.3590939477
N  N11  1  0.43900000  0.37960000  0.20940000  1.0 -0.3590939477
N  N12  1  0.93900000  0.62040000  0.79060000  1.0 -0.3691429754
N  N13  1  0.93900000  0.87960000  0.29060000  1.0 -0.3590939477
N  N14  1  0.43900000  0.12040000  0.70940000  1.0 -0.3590939477
N  N15  1  0.56100000  0.62040000  0.79060000  1.0 -0.3691429754
N  N16  1  0.06100000  0.37960000  0.20940000  1.0 -0.3590939477
N  N17  1  0.25000000  0.00600000  0.59790000  1.0 -0.3476439972
N  N18  1  0.75000000  0.99400000  0.40210000  1.0 -0.3590939477
N  N19  1  0.25000000  0.49400000  0.09790000  1.0 -0.3590939477
N  N20  1  0.75000000  0.50600000  0.90210000  1.0 -0.3590939477
N  N21  1  0.25000000  0.32500000  0.67740000  1.0 -0.3590939477
N  N22  1  0.75000000  0.67500000  0.32260000  1.0 -0.3590939477
N  N23  1  0.25000000  0.17500000  0.17740000  1.0 -0.3590939477
N  N24  1  0.75000000  0.82500000  0.82260000  1.0 -0.3691429754
