# DDEC6 charges by PACMAN v1.1 (https://github.com/mtap-research/PACMAN-charge/)
data_YIWNEX_ASR_pacman
_symmetry_space_group_name_H-M   'P 1'
_cell_length_a   8.77300000
_cell_length_b   13.60200000
_cell_length_c   43.39000000
_cell_angle_alpha   90.00000000
_cell_angle_beta   90.00000000
_cell_angle_gamma   90.00000000
_symmetry_Int_Tables_number   1
_chemical_formula_structural   Cd3C9N7
_chemical_formula_sum   'Cd24 C72 N56'
_cell_volume   5177.74371294
_cell_formula_units_Z   8
loop_
 _symmetry_equiv_pos_site_id
 _symmetry_equiv_pos_as_xyz
  1  'x, y, z'
loop_
 _atom_site_type_symbol
 _atom_site_label
 _atom_site_symmetry_multiplicity
 _atom_site_fract_x
 _atom_site_fract_y
 _atom_site_fract_z
 _atom_site_occupancy
 _atom_site_charge
Cd  Cd1  1  0.25000000  0.18540000  0.56455000  1.0 0.953036552
Cd  Cd2  1  0.75000000  0.81460000  0.43545000  1.0 0.953036552
Cd  Cd3  1  0.25000000  0.31460000  0.06455000  1.0 0.953036552
Cd  Cd4  1  0.75000000  0.68540000  0.93545000  1.0 0.953036552
Cd  Cd5  1  0.75000000  0.66370000  0.69273000  1.0 0.9576055609
Cd  Cd6  1  0.25000000  0.33630000  0.30727000  1.0 0.9576055609
Cd  Cd7  1  0.75000000  0.83630000  0.19273000  1.0 0.9576055609
Cd  Cd8  1  0.25000000  0.16370000  0.80727000  1.0 0.9576055609
Cd  Cd9  1  0.25000000  0.80520000  0.51291000  1.0 0.5425175829
Cd  Cd10  1  0.75000000  0.19480000  0.48709000  1.0 0.5425175829
Cd  Cd11  1  0.25000000  0.69480000  0.01291000  1.0 0.5325698458
Cd  Cd12  1  0.75000000  0.30520000  0.98709000  1.0 0.5425175829
Cd  Cd13  1  0.75000000  0.26200000  0.73129000  1.0 0.2286983086
Cd  Cd14  1  0.25000000  0.73800000  0.26871000  1.0 0.2125533761
Cd  Cd15  1  0.75000000  0.23800000  0.23129000  1.0 0.2286983086
Cd  Cd16  1  0.25000000  0.76200000  0.76871000  1.0 0.2286983086
Cd  Cd17  1  0.25000000  0.56530000  0.61654000  1.0 0.4490163379
Cd  Cd18  1  0.75000000  0.43470000  0.38346000  1.0 0.4490163379
Cd  Cd19  1  0.25000000  0.93470000  0.11654000  1.0 0.4490163379
Cd  Cd20  1  0.75000000  0.06530000  0.88346000  1.0 0.4490163379
Cd  Cd21  1  0.75000000  0.00330000  0.61966000  1.0 0.5490136349
Cd  Cd22  1  0.25000000  0.99670000  0.38034000  1.0 0.5490136349
Cd  Cd23  1  0.75000000  0.49670000  0.11966000  1.0 0.5490136349
Cd  Cd24  1  0.25000000  0.50330000  0.88034000  1.0 0.5490136349
C  C1  1  0.25000000  0.41800000  0.59720000  1.0 0.0794343365
C  C2  1  0.75000000  0.58200000  0.40280000  1.0 0.0794343365
C  C3  1  0.25000000  0.08200000  0.09720000  1.0 0.0794343365
C  C4  1  0.75000000  0.91800000  0.90280000  1.0 0.0794343365
C  C5  1  0.25000000  0.95500000  0.53350000  1.0 0.0794343365
C  C6  1  0.75000000  0.04500000  0.46650000  1.0 0.0794343365
C  C7  1  0.25000000  0.54500000  0.03350000  1.0 0.0794343365
C  C8  1  0.75000000  0.45500000  0.96650000  1.0 0.0794343365
C  C9  1  0.75000000  0.88400000  0.65350000  1.0 0.0794343365
C  C10  1  0.25000000  0.11600000  0.34650000  1.0 0.0864953228
C  C11  1  0.75000000  0.61600000  0.15350000  1.0 0.0794343365
C  C12  1  0.25000000  0.38400000  0.84650000  1.0 0.0794343365
C  C13  1  0.75000000  0.42100000  0.72000000  1.0 0.1021002174
C  C14  1  0.25000000  0.57900000  0.28000000  1.0 0.1124195837
C  C15  1  0.75000000  0.07900000  0.22000000  1.0 0.1021002174
C  C16  1  0.25000000  0.92100000  0.78000000  1.0 0.1124195837
C  C17  1  0.75000000  0.18100000  0.68530000  1.0 0.2125533761
C  C18  1  0.25000000  0.81900000  0.31470000  1.0 0.2156308048
C  C19  1  0.75000000  0.31900000  0.18530000  1.0 0.2125533761
C  C20  1  0.25000000  0.68100000  0.81470000  1.0 0.2125533761
C  C21  1  0.54300000  0.22000000  0.51500000  1.0 0.0794343365
C  C22  1  0.04300000  0.78000000  0.48500000  1.0 0.070605806
C  C23  1  0.95700000  0.28000000  0.01500000  1.0 0.0794343365
C  C24  1  0.45700000  0.72000000  0.98500000  1.0 0.0794343365
C  C25  1  0.45700000  0.78000000  0.48500000  1.0 0.0794343365
C  C26  1  0.95700000  0.22000000  0.51500000  1.0 0.0794343365
C  C27  1  0.04300000  0.72000000  0.98500000  1.0 0.0794343365
C  C28  1  0.54300000  0.28000000  0.01500000  1.0 0.0794343365
C  C29  1  0.53900000  0.08300000  0.60760000  1.0 0.070605806
C  C30  1  0.03900000  0.91700000  0.39240000  1.0 0.070605806
C  C31  1  0.96100000  0.41700000  0.10760000  1.0 0.070605806
C  C32  1  0.46100000  0.58300000  0.89240000  1.0 0.070605806
C  C33  1  0.46100000  0.91700000  0.39240000  1.0 0.070605806
C  C34  1  0.96100000  0.08300000  0.60760000  1.0 0.070605806
C  C35  1  0.03900000  0.58300000  0.89240000  1.0 0.070605806
C  C36  1  0.53900000  0.41700000  0.10760000  1.0 0.070605806
C  C37  1  0.45700000  0.59900000  0.64450000  1.0 0.0794343365
C  C38  1  0.95700000  0.40100000  0.35550000  1.0 0.0794343365
C  C39  1  0.04300000  0.90100000  0.14450000  1.0 0.0794343365
C  C40  1  0.54300000  0.09900000  0.85550000  1.0 0.0794343365
C  C41  1  0.54300000  0.40100000  0.35550000  1.0 0.0794343365
C  C42  1  0.04300000  0.59900000  0.64450000  1.0 0.0794343365
C  C43  1  0.95700000  0.09900000  0.85550000  1.0 0.0794343365
C  C44  1  0.45700000  0.90100000  0.14450000  1.0 0.0794343365
C  C45  1  0.45700000  0.72800000  0.74150000  1.0 0.1166629487
C  C46  1  0.95700000  0.27200000  0.25850000  1.0 0.1124195837
C  C47  1  0.04300000  0.77200000  0.24150000  1.0 0.1166629487
C  C48  1  0.54300000  0.22800000  0.75850000  1.0 0.1166629487
C  C49  1  0.54300000  0.27200000  0.25850000  1.0 0.1124195837
C  C50  1  0.04300000  0.72800000  0.74150000  1.0 0.1124195837
C  C51  1  0.95700000  0.22800000  0.75850000  1.0 0.1166629487
C  C52  1  0.45700000  0.77200000  0.24150000  1.0 0.1166629487
C  C53  1  0.25000000  0.70900000  0.55480000  1.0 -0.1685434303
C  C54  1  0.75000000  0.29100000  0.44520000  1.0 -0.1801022685
C  C55  1  0.25000000  0.79100000  0.05480000  1.0 -0.1685434303
C  C56  1  0.75000000  0.20900000  0.94520000  1.0 -0.1801022685
C  C57  1  0.25000000  0.66800000  0.57620000  1.0 -0.1590260661
C  C58  1  0.75000000  0.33200000  0.42380000  1.0 -0.1513380132
C  C59  1  0.25000000  0.83200000  0.07620000  1.0 -0.1590260661
C  C60  1  0.75000000  0.16800000  0.92380000  1.0 -0.1513380132
C  C61  1  0.75000000  0.96200000  0.54950000  1.0 -0.0767624865
C  C62  1  0.25000000  0.03800000  0.45050000  1.0 -0.0767624865
C  C63  1  0.75000000  0.53800000  0.04950000  1.0 -0.0767624865
C  C64  1  0.25000000  0.46200000  0.95050000  1.0 -0.0767624865
C  C65  1  0.89500000  0.83900000  0.57600000  1.0 -0.0027024643
C  C66  1  0.39500000  0.16100000  0.42400000  1.0 -0.0075086116
C  C67  1  0.60500000  0.66100000  0.07600000  1.0 -0.0027024643
C  C68  1  0.10500000  0.33900000  0.92400000  1.0 -0.0027024643
C  C69  1  0.10500000  0.16100000  0.42400000  1.0 -0.0075086116
C  C70  1  0.60500000  0.83900000  0.57600000  1.0 -0.0027024643
C  C71  1  0.39500000  0.33900000  0.92400000  1.0 -0.0027024643
C  C72  1  0.89500000  0.66100000  0.07600000  1.0 -0.0027024643
N  N1  1  0.25000000  0.34200000  0.58730000  1.0 -0.3424712494
N  N2  1  0.75000000  0.65800000  0.41270000  1.0 -0.3424712494
N  N3  1  0.25000000  0.15800000  0.08730000  1.0 -0.3424712494
N  N4  1  0.75000000  0.84200000  0.91270000  1.0 -0.3424712494
N  N5  1  0.25000000  0.02900000  0.54500000  1.0 -0.3508817054
N  N6  1  0.75000000  0.97100000  0.45500000  1.0 -0.3508817054
N  N7  1  0.25000000  0.47100000  0.04500000  1.0 -0.3508817054
N  N8  1  0.75000000  0.52900000  0.95500000  1.0 -0.3508817054
N  N9  1  0.75000000  0.81900000  0.66820000  1.0 -0.3508817054
N  N10  1  0.25000000  0.18100000  0.33180000  1.0 -0.3595562822
N  N11  1  0.75000000  0.68100000  0.16820000  1.0 -0.3508817054
N  N12  1  0.25000000  0.31900000  0.83180000  1.0 -0.3508817054
N  N13  1  0.75000000  0.50000000  0.71170000  1.0 -0.3424712494
N  N14  1  0.25000000  0.50000000  0.28830000  1.0 -0.3424712494
N  N15  1  0.75000000  0.00000000  0.21170000  1.0 -0.3424712494
N  N16  1  0.25000000  0.00000000  0.78830000  1.0 -0.3508817054
N  N17  1  0.75000000  0.14000000  0.66680000  1.0 -0.277425567
N  N18  1  0.25000000  0.86000000  0.33320000  1.0 -0.2739350594
N  N19  1  0.75000000  0.36000000  0.16680000  1.0 -0.277425567
N  N20  1  0.25000000  0.64000000  0.83320000  1.0 -0.2739350594
N  N21  1  0.44200000  0.22500000  0.53100000  1.0 -0.3708973366
N  N22  1  0.94200000  0.77500000  0.46900000  1.0 -0.3595562822
N  N23  1  0.05800000  0.27500000  0.03100000  1.0 -0.3708973366
N  N24  1  0.55800000  0.72500000  0.96900000  1.0 -0.3708973366
N  N25  1  0.55800000  0.77500000  0.46900000  1.0 -0.3708973366
N  N26  1  0.05800000  0.22500000  0.53100000  1.0 -0.3708973366
N  N27  1  0.94200000  0.72500000  0.96900000  1.0 -0.3708973366
N  N28  1  0.44200000  0.27500000  0.03100000  1.0 -0.3708973366
N  N29  1  0.43900000  0.12500000  0.59860000  1.0 -0.3424712494
N  N30  1  0.93900000  0.87500000  0.40140000  1.0 -0.3424712494
N  N31  1  0.06100000  0.37500000  0.09860000  1.0 -0.3508817054
N  N32  1  0.56100000  0.62500000  0.90140000  1.0 -0.3424712494
N  N33  1  0.56100000  0.87500000  0.40140000  1.0 -0.3424712494
N  N34  1  0.06100000  0.12500000  0.59860000  1.0 -0.3424712494
N  N35  1  0.93900000  0.62500000  0.90140000  1.0 -0.3424712494
N  N36  1  0.43900000  0.37500000  0.09860000  1.0 -0.3424712494
N  N37  1  0.56000000  0.61800000  0.65910000  1.0 -0.3708973366
N  N38  1  0.06000000  0.38200000  0.34090000  1.0 -0.3708973366
N  N39  1  0.94000000  0.88200000  0.15910000  1.0 -0.3708973366
N  N40  1  0.44000000  0.11800000  0.84090000  1.0 -0.3708973366
N  N41  1  0.44000000  0.38200000  0.34090000  1.0 -0.3708973366
N  N42  1  0.94000000  0.61800000  0.65910000  1.0 -0.3708973366
N  N43  1  0.06000000  0.11800000  0.84090000  1.0 -0.3756172455
N  N44  1  0.56000000  0.88200000  0.15910000  1.0 -0.3708973366
N  N45  1  0.55800000  0.70600000  0.72700000  1.0 -0.3708973366
N  N46  1  0.05800000  0.29400000  0.27300000  1.0 -0.3708973366
N  N47  1  0.94200000  0.79400000  0.22700000  1.0 -0.3708973366
N  N48  1  0.44200000  0.20600000  0.77300000  1.0 -0.3708973366
N  N49  1  0.44200000  0.29400000  0.27300000  1.0 -0.3708973366
N  N50  1  0.94200000  0.70600000  0.72700000  1.0 -0.3708973366
N  N51  1  0.05800000  0.20600000  0.77300000  1.0 -0.3708973366
N  N52  1  0.55800000  0.79400000  0.22700000  1.0 -0.3708973366
N  N53  1  0.75000000  0.90100000  0.57520000  1.0 0.070605806
N  N54  1  0.25000000  0.09900000  0.42480000  1.0 0.070605806
N  N55  1  0.75000000  0.59900000  0.07520000  1.0 0.070605806
N  N56  1  0.25000000  0.40100000  0.92480000  1.0 0.070605806
