# DDEC6 charges by PACMAN v1.1 (https://github.com/mtap-research/PACMAN-charge/)
data_YIWPID_ASR_pacman
_symmetry_space_group_name_H-M   'P 1'
_cell_length_a   9.04800000
_cell_length_b   10.81700000
_cell_length_c   27.55300000
_cell_angle_alpha   90.00000000
_cell_angle_beta   90.00000000
_cell_angle_gamma   90.00000000
_symmetry_Int_Tables_number   1
_chemical_formula_structural   Cd3(C4N3)2
_chemical_formula_sum   'Cd12 C32 N24'
_cell_volume   2696.67316745
_cell_formula_units_Z   4
loop_
 _symmetry_equiv_pos_site_id
 _symmetry_equiv_pos_as_xyz
  1  'x, y, z'
loop_
 _atom_site_type_symbol
 _atom_site_label
 _atom_site_symmetry_multiplicity
 _atom_site_fract_x
 _atom_site_fract_y
 _atom_site_fract_z
 _atom_site_occupancy
 _atom_site_charge
Cd  Cd1  1  0.00000000  0.34050000  0.00000000  1.0 0.9203177177
Cd  Cd2  1  0.00000000  0.65950000  0.50000000  1.0 0.9203177177
Cd  Cd3  1  0.50000000  0.86470000  0.23700000  1.0 0.9621397638
Cd  Cd4  1  0.50000000  0.13530000  0.73700000  1.0 0.9621397638
Cd  Cd5  1  0.00000000  0.16210000  0.19410000  1.0 0.4198828944
Cd  Cd6  1  0.00000000  0.83790000  0.69410000  1.0 0.4198828944
Cd  Cd7  1  0.00000000  0.39670000  0.80110000  1.0 0.4198828944
Cd  Cd8  1  0.00000000  0.60330000  0.30110000  1.0 0.4198828944
Cd  Cd9  1  0.50000000  0.63190000  0.05160000  1.0 0.4029600704
Cd  Cd10  1  0.50000000  0.36810000  0.55160000  1.0 0.4029600704
Cd  Cd11  1  0.50000000  0.06670000  0.93970000  1.0 0.448437401
Cd  Cd12  1  0.50000000  0.93330000  0.43970000  1.0 0.448437401
C  C1  1  0.00000000  0.23200000  0.11800000  1.0 0.1315264984
C  C2  1  0.00000000  0.76800000  0.61800000  1.0 0.1315264984
C  C3  1  0.00000000  0.42600000  0.88100000  1.0 0.1315264984
C  C4  1  0.00000000  0.57400000  0.38100000  1.0 0.1315264984
C  C5  1  0.29900000  0.16000000  0.96400000  1.0 0.0829444741
C  C6  1  0.70100000  0.16000000  0.96400000  1.0 0.0829444741
C  C7  1  0.29900000  0.84000000  0.46400000  1.0 0.0829444741
C  C8  1  0.70100000  0.84000000  0.46400000  1.0 0.0829444741
C  C9  1  0.29800000  0.52600000  0.03400000  1.0 0.1075318762
C  C10  1  0.70200000  0.52600000  0.03400000  1.0 0.1075318762
C  C11  1  0.29800000  0.47400000  0.53400000  1.0 0.1075318762
C  C12  1  0.70200000  0.47400000  0.53400000  1.0 0.1075318762
C  C13  1  0.50000000  0.73300000  0.12300000  1.0 0.1315264984
C  C14  1  0.50000000  0.26700000  0.62300000  1.0 0.1315264984
C  C15  1  0.50000000  0.05800000  0.85800000  1.0 0.0935403192
C  C16  1  0.50000000  0.94200000  0.35800000  1.0 0.0955507466
C  C17  1  0.21100000  0.06000000  0.21100000  1.0 0.1150615895
C  C18  1  0.78900000  0.06000000  0.21100000  1.0 0.1150615895
C  C19  1  0.21100000  0.94000000  0.71100000  1.0 0.1150615895
C  C20  1  0.78900000  0.94000000  0.71100000  1.0 0.1150615895
C  C21  1  0.22800000  0.30900000  0.77200000  1.0 0.2334024393
C  C22  1  0.77200000  0.30900000  0.77200000  1.0 0.2334024393
C  C23  1  0.22800000  0.69100000  0.27200000  1.0 0.2351442957
C  C24  1  0.77200000  0.69100000  0.27200000  1.0 0.2351442957
C  C25  1  0.00000000  0.58100000  0.76100000  1.0 -0.0956146634
C  C26  1  0.00000000  0.41900000  0.26100000  1.0 -0.0956146634
C  C27  1  0.00000000  0.32700000  0.24200000  1.0 -0.1922608382
C  C28  1  0.00000000  0.67300000  0.74200000  1.0 -0.1922608382
C  C29  1  0.50000000  0.79100000  0.99800000  1.0 -0.1387869484
C  C30  1  0.50000000  0.20900000  0.49800000  1.0 -0.1387869484
C  C31  1  0.50000000  0.88000000  0.97800000  1.0 -0.1543496094
C  C32  1  0.50000000  0.12000000  0.47800000  1.0 -0.1543496094
N  N1  1  0.00000000  0.25800000  0.08000000  1.0 -0.3542372948
N  N2  1  0.00000000  0.74200000  0.58000000  1.0 -0.3542372948
N  N3  1  0.00000000  0.41000000  0.92000000  1.0 -0.3623621579
N  N4  1  0.00000000  0.59000000  0.42000000  1.0 -0.3623621579
N  N5  1  0.19900000  0.21000000  0.97800000  1.0 -0.3623621579
N  N6  1  0.80100000  0.21000000  0.97800000  1.0 -0.3623621579
N  N7  1  0.19900000  0.79000000  0.47800000  1.0 -0.3623621579
N  N8  1  0.80100000  0.79000000  0.47800000  1.0 -0.3623621579
N  N9  1  0.19700000  0.47500000  0.02400000  1.0 -0.3442762485
N  N10  1  0.80300000  0.47500000  0.02400000  1.0 -0.3442762485
N  N11  1  0.19700000  0.52500000  0.52400000  1.0 -0.3442762485
N  N12  1  0.80300000  0.52500000  0.52400000  1.0 -0.3442762485
N  N13  1  0.50000000  0.78200000  0.15900000  1.0 -0.3911590493
N  N14  1  0.50000000  0.21800000  0.65900000  1.0 -0.3911590493
N  N15  1  0.50000000  0.94000000  0.31700000  1.0 -0.3672324485
N  N16  1  0.50000000  0.06000000  0.81700000  1.0 -0.3672324485
N  N17  1  0.31900000  0.00600000  0.21600000  1.0 -0.4053615248
N  N18  1  0.68100000  0.00600000  0.21600000  1.0 -0.4045729653
N  N19  1  0.31900000  0.99400000  0.71600000  1.0 -0.4045729653
N  N20  1  0.68100000  0.99400000  0.71600000  1.0 -0.4045729653
N  N21  1  0.34200000  0.72500000  0.26200000  1.0 -0.4317741758
N  N22  1  0.65800000  0.72500000  0.26200000  1.0 -0.4317741758
N  N23  1  0.34200000  0.27500000  0.76200000  1.0 -0.4317741758
N  N24  1  0.65800000  0.27500000  0.76200000  1.0 -0.4317741758
