# DDEC6 charges by PACMAN v1.1 (https://github.com/mtap-research/PACMAN-charge/)
data_YIWZOV_ASR_pacman
_symmetry_space_group_name_H-M   'P 1'
_cell_length_a   15.68510000
_cell_length_b   15.68510000
_cell_length_c   16.17150000
_cell_angle_alpha   116.69000000
_cell_angle_beta   116.69000000
_cell_angle_gamma   94.23320000
_symmetry_Int_Tables_number   1
_chemical_formula_structural   ZnH24(C5N2)4
_chemical_formula_sum   'Zn4 H96 C80 N32'
_cell_volume   2980.65368195
_cell_formula_units_Z   4
loop_
 _symmetry_equiv_pos_site_id
 _symmetry_equiv_pos_as_xyz
  1  'x, y, z'
loop_
 _atom_site_type_symbol
 _atom_site_label
 _atom_site_symmetry_multiplicity
 _atom_site_fract_x
 _atom_site_fract_y
 _atom_site_fract_z
 _atom_site_occupancy
 _atom_site_charge
Zn  Zn1  1  0.85357000  0.84807000  0.57448000  1.0 0.6330442365
Zn  Zn2  1  0.27360000  0.27909000  0.42552000  1.0 0.6330442365
Zn  Zn3  1  0.52909000  0.02360000  0.92552000  1.0 0.6330442365
Zn  Zn4  1  0.09807000  0.60357000  0.07448000  1.0 0.6330442365
H  H1  1  0.90126000  0.93126000  0.80201000  1.0 0.0898239166
H  H2  1  0.12925000  0.09925000  0.19799000  1.0 0.0898239166
H  H3  1  0.34925000  0.87925000  0.69799000  1.0 0.0898239166
H  H4  1  0.18126000  0.65126000  0.30201000  1.0 0.0898239166
H  H5  1  0.71080000  0.10911000  0.77120000  1.0 0.1111114459
H  H6  1  0.33791000  0.93960000  0.22880000  1.0 0.1111114459
H  H7  1  0.18960000  0.08791000  0.72880000  1.0 0.1111114459
H  H8  1  0.35911000  0.46080000  0.27120000  1.0 0.1111114459
H  H9  1  0.68796000  0.98470000  0.56835000  1.0 0.0995779719
H  H10  1  0.41635000  0.11962000  0.43165000  1.0 0.0995779719
H  H11  1  0.36962000  0.16635000  0.93165000  1.0 0.0995779719
H  H12  1  0.23470000  0.43796000  0.06835000  1.0 0.0995779719
H  H13  1  0.05307000  0.00980000  0.81460000  1.0 0.0898239166
H  H14  1  0.19520000  0.23847000  0.18540000  1.0 0.0898239166
H  H15  1  0.48847000  0.94520000  0.68540000  1.0 0.0898239166
H  H16  1  0.25980000  0.80307000  0.31460000  1.0 0.0898239166
H  H17  1  0.17973000  0.77292000  0.76511000  1.0 0.0995779719
H  H18  1  0.00781000  0.41461000  0.23489000  1.0 0.0995779719
H  H19  1  0.66461000  0.75781000  0.73489000  1.0 0.0995779719
H  H20  1  0.02292000  0.92973000  0.26511000  1.0 0.0995779719
H  H21  1  0.99070000  0.70402000  0.57418000  1.0 0.0995779719
H  H22  1  0.12984000  0.41652000  0.42582000  1.0 0.0995779719
H  H23  1  0.66652000  0.87984000  0.92582000  1.0 0.0995779719
H  H24  1  0.95402000  0.74070000  0.07418000  1.0 0.0995779719
H  H25  1  0.66288000  0.72203000  0.32759000  1.0 0.0898239166
H  H26  1  0.39444000  0.33529000  0.67241000  1.0 0.0898239166
H  H27  1  0.58529000  0.14444000  0.17241000  1.0 0.0898239166
H  H28  1  0.97203000  0.41288000  0.82759000  1.0 0.0898239166
H  H29  1  0.78909000  0.62957000  0.55393000  1.0 0.0995779719
H  H30  1  0.07563000  0.23516000  0.44607000  1.0 0.0995779719
H  H31  1  0.48516000  0.82563000  0.94607000  1.0 0.0995779719
H  H32  1  0.87957000  0.53909000  0.05393000  1.0 0.0995779719
H  H33  1  0.62020000  0.46710000  0.35610000  1.0 0.1111114459
H  H34  1  0.11100000  0.26410000  0.64390000  1.0 0.1111114459
H  H35  1  0.51410000  0.86100000  0.14390000  1.0 0.1111114459
H  H36  1  0.71710000  0.37020000  0.85610000  1.0 0.1111114459
H  H37  1  0.51607000  0.57228000  0.16754000  1.0 0.0685200514
H  H38  1  0.40474000  0.34853000  0.83246000  1.0 0.0685200514
H  H39  1  0.59853000  0.15474000  0.33246000  1.0 0.0685200514
H  H40  1  0.82228000  0.26607000  0.66754000  1.0 0.0685200514
H  H41  1  0.46472000  0.48014000  0.18489000  1.0 0.0685200514
H  H42  1  0.29525000  0.27983000  0.81511000  1.0 0.0685200514
H  H43  1  0.52983000  0.04525000  0.31511000  1.0 0.0685200514
H  H44  1  0.73014000  0.21472000  0.68489000  1.0 0.0685200514
H  H45  1  0.71540000  0.11580000  0.46438000  1.0 0.0685200514
H  H46  1  0.65141000  0.25101000  0.53562000  1.0 0.0685200514
H  H47  1  0.50101000  0.40141000  0.03562000  1.0 0.0685200514
H  H48  1  0.36580000  0.46540000  0.96438000  1.0 0.0685200514
H  H49  1  0.67946000  0.98836000  0.35756000  1.0 0.0791438596
H  H50  1  0.63080000  0.32190000  0.64244000  1.0 0.0791438596
H  H51  1  0.57190000  0.38080000  0.14244000  1.0 0.0791438596
H  H52  1  0.23836000  0.42946000  0.85756000  1.0 0.0791438596
H  H53  1  0.78056000  0.17699000  0.37276000  1.0 0.0685200514
H  H54  1  0.80423000  0.40780000  0.62724000  1.0 0.0685200514
H  H55  1  0.65780000  0.55423000  0.12724000  1.0 0.0685200514
H  H56  1  0.42699000  0.53056000  0.87276000  1.0 0.0685200514
H  H57  1  0.75418000  0.04713000  0.27651000  1.0 0.0791438596
H  H58  1  0.77062000  0.47767000  0.72349000  1.0 0.0791438596
H  H59  1  0.72767000  0.52062000  0.22349000  1.0 0.0791438596
H  H60  1  0.29713000  0.50418000  0.77651000  1.0 0.0791438596
H  H61  1  0.93548000  0.12583000  0.42416000  1.0 0.0685200514
H  H62  1  0.70167000  0.51132000  0.57584000  1.0 0.0685200514
H  H63  1  0.76132000  0.45167000  0.07584000  1.0 0.0685200514
H  H64  1  0.37583000  0.68548000  0.92416000  1.0 0.0685200514
H  H65  1  0.90670000  0.17156000  0.52833000  1.0 0.0606989891
H  H66  1  0.64323000  0.37837000  0.47167000  1.0 0.0606989891
H  H67  1  0.62837000  0.39323000  0.97167000  1.0 0.0606989891
H  H68  1  0.42156000  0.65670000  0.02833000  1.0 0.0606989891
H  H69  1  0.87539000  0.05748000  0.58940000  1.0 0.0898239166
H  H70  1  0.46808000  0.28599000  0.41060000  1.0 0.0898239166
H  H71  1  0.53599000  0.21808000  0.91060000  1.0 0.0898239166
H  H72  1  0.30748000  0.62539000  0.08940000  1.0 0.0898239166
H  H73  1  0.87345000  0.91640000  0.29248000  1.0 0.1111114459
H  H74  1  0.62391000  0.58097000  0.70752000  1.0 0.1111114459
H  H75  1  0.83097000  0.37391000  0.20752000  1.0 0.1111114459
H  H76  1  0.16640000  0.62345000  0.79248000  1.0 0.1111114459
H  H77  1  0.85096000  0.77419000  0.34638000  1.0 0.0995779719
H  H78  1  0.42780000  0.50458000  0.65362000  1.0 0.0995779719
H  H79  1  0.75458000  0.17780000  0.15362000  1.0 0.0995779719
H  H80  1  0.02419000  0.60096000  0.84638000  1.0 0.0995779719
H  H81  1  0.27618000  0.84750000  0.94173000  1.0 0.0685200514
H  H82  1  0.90577000  0.33446000  0.05827000  1.0 0.0685200514
H  H83  1  0.58446000  0.65577000  0.55827000  1.0 0.0685200514
H  H84  1  0.09750000  0.02618000  0.44173000  1.0 0.0685200514
H  H85  1  0.32544000  0.96241000  0.07353000  1.0 0.0898239166
H  H86  1  0.88888000  0.25192000  0.92647000  1.0 0.0898239166
H  H87  1  0.50192000  0.63888000  0.42647000  1.0 0.0898239166
H  H88  1  0.21241000  0.07544000  0.57353000  1.0 0.0898239166
H  H89  1  0.90961000  0.19347000  0.09390000  1.0 0.0898239166
H  H90  1  0.09957000  0.81571000  0.90610000  1.0 0.0898239166
H  H91  1  0.06571000  0.84957000  0.40610000  1.0 0.0898239166
H  H92  1  0.44347000  0.65961000  0.59390000  1.0 0.0898239166
H  H93  1  0.84846000  0.01668000  0.95308000  1.0 0.0898239166
H  H94  1  0.06360000  0.89538000  0.04692000  1.0 0.0898239166
H  H95  1  0.14538000  0.81360000  0.54692000  1.0 0.0898239166
H  H96  1  0.26668000  0.59846000  0.45308000  1.0 0.0898239166
C  C1  1  0.84590000  0.96169000  0.76558000  1.0 0.0685200514
C  C2  1  0.19610000  0.08032000  0.23442000  1.0 0.0685200514
C  C3  1  0.33032000  0.94610000  0.73442000  1.0 0.0685200514
C  C4  1  0.21169000  0.59590000  0.26558000  1.0 0.0685200514
C  C5  1  0.74900000  0.05683000  0.74745000  1.0 -0.118362746
C  C6  1  0.30938000  0.00156000  0.25255000  1.0 -0.118362746
C  C7  1  0.25156000  0.05938000  0.75255000  1.0 -0.118362746
C  C8  1  0.30683000  0.49900000  0.24745000  1.0 -0.118362746
C  C9  1  0.73922000  0.99485000  0.64776000  1.0 -0.0498063323
C  C10  1  0.34710000  0.09146000  0.35224000  1.0 -0.0498063323
C  C11  1  0.34146000  0.09710000  0.85224000  1.0 -0.0498063323
C  C12  1  0.24485000  0.48922000  0.14776000  1.0 -0.0498063323
C  C13  1  0.84954000  0.07536000  0.93368000  1.0 -0.0498063323
C  C14  1  0.14168000  0.91586000  0.06632000  1.0 -0.0498063323
C  C15  1  0.16586000  0.89168000  0.56632000  1.0 -0.0498063323
C  C16  1  0.32536000  0.59954000  0.43368000  1.0 -0.0498063323
C  C17  1  0.89025000  0.17735000  0.01277000  1.0 -0.182957406
C  C18  1  0.16458000  0.87748000  0.98723000  1.0 -0.182957406
C  C19  1  0.12748000  0.91458000  0.48723000  1.0 -0.182957406
C  C20  1  0.42735000  0.64025000  0.51277000  1.0 -0.182957406
C  C21  1  0.25745000  0.91288000  0.98905000  1.0 -0.1613214973
C  C22  1  0.92383000  0.26840000  0.01095000  1.0 -0.1613214973
C  C23  1  0.51840000  0.67383000  0.51095000  1.0 -0.1613214973
C  C24  1  0.16288000  0.00745000  0.48905000  1.0 -0.1613214973
C  C25  1  0.21426000  0.97480000  0.94125000  1.0 -0.1613214973
C  C26  1  0.03355000  0.27301000  0.05875000  1.0 -0.1613214973
C  C27  1  0.52301000  0.78355000  0.55875000  1.0 -0.1613214973
C  C28  1  0.22480000  0.96426000  0.44125000  1.0 -0.1613214973
C  C29  1  0.06106000  0.93682000  0.77285000  1.0 0.0382735179
C  C30  1  0.16397000  0.28820000  0.22715000  1.0 0.0382735179
C  C31  1  0.53820000  0.91397000  0.72715000  1.0 0.0382735179
C  C32  1  0.18682000  0.81106000  0.27285000  1.0 0.0382735179
C  C33  1  0.12333000  0.80941000  0.74740000  1.0 -0.1308054574
C  C34  1  0.06202000  0.37594000  0.25260000  1.0 -0.1308054574
C  C35  1  0.62594000  0.81202000  0.75260000  1.0 -0.1308054574
C  C36  1  0.05941000  0.87333000  0.24740000  1.0 -0.1308054574
C  C37  1  0.03124000  0.77766000  0.65238000  1.0 -0.0498063323
C  C38  1  0.12528000  0.37886000  0.34762000  1.0 -0.0498063323
C  C39  1  0.62886000  0.87528000  0.84762000  1.0 -0.0498063323
C  C40  1  0.02766000  0.78124000  0.15238000  1.0 -0.0498063323
C  C41  1  0.67599000  0.67639000  0.36408000  1.0 0.0382735179
C  C42  1  0.31231000  0.31192000  0.63592000  1.0 0.0382735179
C  C43  1  0.56192000  0.06231000  0.13592000  1.0 0.0452483829
C  C44  1  0.92639000  0.42599000  0.86408000  1.0 0.0382735179
C  C45  1  0.73807000  0.62456000  0.47747000  1.0 -0.0607306052
C  C46  1  0.14709000  0.26060000  0.52253000  1.0 -0.0607306052
C  C47  1  0.51060000  0.89709000  0.02253000  1.0 -0.0607306052
C  C48  1  0.87456000  0.48807000  0.97747000  1.0 -0.0607306052
C  C49  1  0.65451000  0.54421000  0.38072000  1.0 -0.1308054574
C  C50  1  0.16349000  0.27379000  0.61928000  1.0 -0.1308054574
C  C51  1  0.52379000  0.91349000  0.11928000  1.0 -0.1308054574
C  C52  1  0.79421000  0.40451000  0.88072000  1.0 -0.1308054574
C  C53  1  0.53324000  0.51736000  0.19302000  1.0 -0.0693680609
C  C54  1  0.32434000  0.34022000  0.80698000  1.0 -0.0693680609
C  C55  1  0.59022000  0.07434000  0.30698000  1.0 -0.0693680609
C  C56  1  0.76736000  0.28324000  0.69302000  1.0 -0.0693680609
C  C57  1  0.69142000  0.06735000  0.37694000  1.0 -0.1885339681
C  C58  1  0.69041000  0.31448000  0.62306000  1.0 -0.1885339681
C  C59  1  0.56448000  0.44041000  0.12306000  1.0 -0.1885339681
C  C60  1  0.31735000  0.44142000  0.87694000  1.0 -0.1885339681
C  C61  1  0.77459000  0.10088000  0.36170000  1.0 -0.182957406
C  C62  1  0.73919000  0.41289000  0.63830000  1.0 -0.182957406
C  C63  1  0.66289000  0.48919000  0.13830000  1.0 -0.182957406
C  C64  1  0.35088000  0.52459000  0.86170000  1.0 -0.182957406
C  C65  1  0.87937000  0.10890000  0.44306000  1.0 -0.0693680609
C  C66  1  0.66584000  0.43631000  0.55694000  1.0 -0.0693680609
C  C67  1  0.68631000  0.41584000  0.05694000  1.0 -0.0693680609
C  C68  1  0.35890000  0.62937000  0.94306000  1.0 -0.0693680609
C  C69  1  0.87004000  0.99887000  0.51550000  1.0 0.0023934559
C  C70  1  0.48337000  0.35455000  0.48450000  1.0 0.0023934559
C  C71  1  0.60455000  0.23337000  0.98450000  1.0 0.0023934559
C  C72  1  0.24887000  0.62004000  0.01550000  1.0 0.0023934559
C  C73  1  0.86956000  0.92381000  0.36093000  1.0 -0.1308054574
C  C74  1  0.56288000  0.50863000  0.63907000  1.0 -0.1308054574
C  C75  1  0.75863000  0.31288000  0.13907000  1.0 -0.1351566825
C  C76  1  0.17381000  0.61956000  0.86093000  1.0 -0.1308054574
C  C77  1  0.85776000  0.85381000  0.38777000  1.0 -0.0607306052
C  C78  1  0.46604000  0.46999000  0.61223000  1.0 -0.0607306052
C  C79  1  0.71999000  0.21604000  0.11223000  1.0 -0.0607306052
C  C80  1  0.10381000  0.60776000  0.88777000  1.0 -0.0607306052
N  N1  1  0.80043000  0.93544000  0.65968000  1.0 -0.2993855284
N  N2  1  0.27576000  0.14075000  0.34032000  1.0 -0.2993855284
N  N3  1  0.39075000  0.02576000  0.84032000  1.0 -0.2993855284
N  N4  1  0.18544000  0.55043000  0.15968000  1.0 -0.2993855284
N  N5  1  0.81636000  0.03476000  0.82153000  1.0 0.0606989891
N  N6  1  0.21323000  0.99483000  0.17847000  1.0 0.0606989891
N  N7  1  0.24483000  0.96323000  0.67847000  1.0 0.0606989891
N  N8  1  0.28476000  0.56636000  0.32153000  1.0 0.0606989891
N  N9  1  0.99149000  0.85598000  0.66837000  1.0 -0.3153893117
N  N10  1  0.18761000  0.32312000  0.33163000  1.0 -0.3153893117
N  N11  1  0.57312000  0.93761000  0.83163000  1.0 -0.3153893117
N  N12  1  0.10598000  0.74149000  0.16837000  1.0 -0.3153893117
N  N13  1  0.14192000  0.91132000  0.82724000  1.0 0.0382735179
N  N14  1  0.08407000  0.31467000  0.17276000  1.0 0.0382735179
N  N15  1  0.56467000  0.83407000  0.67276000  1.0 0.0382735179
N  N16  1  0.16132000  0.89192000  0.32724000  1.0 0.0382735179
N  N17  1  0.61543000  0.57798000  0.30960000  1.0 0.0254801002
N  N18  1  0.26838000  0.30583000  0.69040000  1.0 0.0254801002
N  N19  1  0.55583000  0.01838000  0.19040000  1.0 0.0254801002
N  N20  1  0.82798000  0.36543000  0.80960000  1.0 0.0254801002
N  N21  1  0.75116000  0.70674000  0.46638000  1.0 -0.2949150268
N  N22  1  0.24036000  0.28478000  0.53362000  1.0 -0.2993855284
N  N23  1  0.53478000  0.99036000  0.03362000  1.0 -0.2993855284
N  N24  1  0.95674000  0.50116000  0.96638000  1.0 -0.2993855284
N  N25  1  0.85747000  0.90090000  0.48379000  1.0 -0.3098160092
N  N26  1  0.41712000  0.37369000  0.51621000  1.0 -0.3098160092
N  N27  1  0.62369000  0.16712000  0.01621000  1.0 -0.3098160092
N  N28  1  0.15090000  0.60747000  0.98379000  1.0 -0.3098160092
N  N29  1  0.87810000  0.01545000  0.44266000  1.0 0.0243520301
N  N30  1  0.57279000  0.43544000  0.55734000  1.0 0.0243520301
N  N31  1  0.68544000  0.32279000  0.05734000  1.0 0.0254801002
N  N32  1  0.26545000  0.62810000  0.94266000  1.0 0.0243520301
