# DDEC6 charges by PACMAN v1.1 (https://github.com/mtap-research/PACMAN-charge/)
data_YIWZOV_ion_pacman
_symmetry_space_group_name_H-M   'P 1'
_cell_length_a   16.72360000
_cell_length_b   16.17150000
_cell_length_c   15.68510000
_cell_angle_alpha   63.31000000
_cell_angle_beta   59.76360000
_cell_angle_gamma   56.92640000
_symmetry_Int_Tables_number   1
_chemical_formula_structural   ZnH20C22N8(ClO4)2
_chemical_formula_sum   'Zn4 H80 C88 N32 Cl8 O32'
_cell_volume   2980.65801694
_cell_formula_units_Z   4
loop_
 _symmetry_equiv_pos_site_id
 _symmetry_equiv_pos_as_xyz
  1  'x, y, z'
loop_
 _atom_site_type_symbol
 _atom_site_label
 _atom_site_symmetry_multiplicity
 _atom_site_fract_x
 _atom_site_fract_y
 _atom_site_fract_z
 _atom_site_occupancy
 _atom_site_charge
Zn  Zn1  1  0.27227000  0.15181000  0.72411000  1.0 0.6699098996
Zn  Zn2  1  0.85181000  0.72411000  0.15181000  1.0 0.6699098996
Zn  Zn3  1  0.52589000  0.39819000  0.97773000  1.0 0.6699098996
Zn  Zn4  1  0.09819000  0.97773000  0.39819000  1.0 0.6699098996
H  H1  1  0.13350000  0.05430000  0.93290000  1.0 0.1098020534
H  H2  1  0.87930000  0.93290000  0.05430000  1.0 0.1098020534
H  H3  1  0.31710000  0.37070000  0.11650000  1.0 0.1098020534
H  H4  1  0.19570000  0.11650000  0.37070000  1.0 0.1098020534
H  H5  1  0.35850000  0.91090000  0.04350000  1.0 0.1359832698
H  H6  1  0.68710000  0.04350000  0.91090000  1.0 0.1359832698
H  H7  1  0.20650000  0.56290000  0.89150000  1.0 0.1359832698
H  H8  1  0.33910000  0.89150000  0.56290000  1.0 0.1359832698
H  H9  1  0.41580000  0.00760000  0.86660000  1.0 0.1281932756
H  H10  1  0.71000000  0.86660000  0.00760000  1.0 0.1281932756
H  H11  1  0.38340000  0.54000000  0.83420000  1.0 0.1281932756
H  H12  1  0.24240000  0.83420000  0.54000000  1.0 0.1281932756
H  H13  1  0.04900000  0.75440000  0.00960000  1.0 0.1098020534
H  H14  1  0.18700000  0.00960000  0.75440000  1.0 0.1098020534
H  H15  1  0.24040000  0.06300000  0.20100000  1.0 0.1098020534
H  H16  1  0.49560000  0.20100000  0.06300000  1.0 0.1098020534
H  H17  1  0.17030000  0.58410000  0.22090000  1.0 0.1281932756
H  H18  1  0.02470000  0.22090000  0.58410000  1.0 0.1281932756
H  H19  1  0.02910000  0.22530000  0.07970000  1.0 0.1281932756
H  H20  1  0.66590000  0.07970000  0.22530000  1.0 0.1281932756
H  H21  1  0.99590000  0.58490000  0.28830000  1.0 0.1359832698
H  H22  1  0.13090000  0.28830000  0.58490000  1.0 0.1359832698
H  H23  1  0.96170000  0.11910000  0.25410000  1.0 0.1359832698
H  H24  1  0.66510000  0.25410000  0.11910000  1.0 0.1359832698
H  H25  1  0.96610000  0.86550000  0.58470000  1.0 0.1098020534
H  H26  1  0.58370000  0.58470000  0.86550000  1.0 0.1098020534
H  H27  1  0.66530000  0.66630000  0.28390000  1.0 0.1098020534
H  H28  1  0.38450000  0.28390000  0.66630000  1.0 0.1098020534
H  H29  1  0.86880000  0.17260000  0.46680000  1.0 0.1281932756
H  H30  1  0.49180000  0.46680000  0.17260000  1.0 0.1281932756
H  H31  1  0.78320000  0.75820000  0.38120000  1.0 0.1281932756
H  H32  1  0.07740000  0.38120000  0.75820000  1.0 0.1281932756
H  H33  1  0.73910000  0.13110000  0.62170000  1.0 0.1281932756
H  H34  1  0.50810000  0.62170000  0.13110000  1.0 0.1281932756
H  H35  1  0.62830000  0.74190000  0.51090000  1.0 0.1281932756
H  H36  1  0.11890000  0.51090000  0.74190000  1.0 0.1281932756
H  H37  1  0.81640000  0.85060000  0.72820000  1.0 0.1002353319
H  H38  1  0.60480000  0.72820000  0.85060000  1.0 0.1002353319
H  H39  1  0.52180000  0.64520000  0.43360000  1.0 0.1002353319
H  H40  1  0.39940000  0.43360000  0.64520000  1.0 0.1002353319
H  H41  1  0.73710000  0.94830000  0.77490000  1.0 0.1098020534
H  H42  1  0.53970000  0.77490000  0.94830000  1.0 0.1098020534
H  H43  1  0.47510000  0.71030000  0.51290000  1.0 0.1098020534
H  H44  1  0.30170000  0.51290000  0.71030000  1.0 0.1098020534
H  H45  1  0.65210000  0.89070000  0.74090000  1.0 0.0878780945
H  H46  1  0.71630000  0.74090000  0.89070000  1.0 0.0878780945
H  H47  1  0.50910000  0.53370000  0.59790000  1.0 0.0878780945
H  H48  1  0.35930000  0.59790000  0.53370000  1.0 0.0878780945
H  H49  1  0.63630000  0.00550000  0.67730000  1.0 0.1002353319
H  H50  1  0.68090000  0.67730000  0.00550000  1.0 0.1002353319
H  H51  1  0.57270000  0.56910000  0.61370000  1.0 0.1002353319
H  H52  1  0.24450000  0.61370000  0.56910000  1.0 0.1002353319
H  H53  1  0.79810000  0.83570000  0.58950000  1.0 0.1002353319
H  H54  1  0.77670000  0.58950000  0.83570000  1.0 0.1002353319
H  H55  1  0.66050000  0.47330000  0.45190000  1.0 0.1002353319
H  H56  1  0.41430000  0.45190000  0.47330000  1.0 0.1002353319
H  H57  1  0.76040000  0.95260000  0.52860000  1.0 0.1002353319
H  H58  1  0.75840000  0.52860000  0.95260000  1.0 0.1002353319
H  H59  1  0.72140000  0.49160000  0.48960000  1.0 0.1002353319
H  H60  1  0.29740000  0.48960000  0.49160000  1.0 0.1002353319
H  H61  1  0.69330000  0.87050000  0.50390000  1.0 0.1002353319
H  H62  1  0.93230000  0.50390000  0.87050000  1.0 0.1002353319
H  H63  1  0.74610000  0.31770000  0.55670000  1.0 0.1002353319
H  H64  1  0.37950000  0.55670000  0.31770000  1.0 0.1002353319
H  H65  1  0.64230000  0.83450000  0.62450000  1.0 0.1002353319
H  H66  1  0.89870000  0.62450000  0.83450000  1.0 0.1002353319
H  H67  1  0.62550000  0.35130000  0.60770000  1.0 0.1002353319
H  H68  1  0.41550000  0.60770000  0.35130000  1.0 0.1002353319
H  H69  1  0.46370000  0.95150000  0.70430000  1.0 0.1002353319
H  H70  1  0.88050000  0.70430000  0.95150000  1.0 0.1002353319
H  H71  1  0.54570000  0.36950000  0.78630000  1.0 0.1002353319
H  H72  1  0.29850000  0.78630000  0.36950000  1.0 0.1002353319
H  H73  1  0.61170000  0.09170000  0.42870000  1.0 0.1359832698
H  H74  1  0.86790000  0.42870000  0.09170000  1.0 0.1359832698
H  H75  1  0.82130000  0.38210000  0.63830000  1.0 0.1359832698
H  H76  1  0.15830000  0.63830000  0.38210000  1.0 0.1359832698
H  H77  1  0.43340000  0.21700000  0.50460000  1.0 0.119942569
H  H78  1  0.84500000  0.50460000  0.21700000  1.0 0.119942569
H  H79  1  0.74540000  0.40500000  0.81660000  1.0 0.119942569
H  H80  1  0.03300000  0.81660000  0.40500000  1.0 0.119942569
C  C1  1  0.19770000  0.03150000  0.93670000  1.0 0.119942569
C  C2  1  0.83410000  0.93670000  0.03150000  1.0 0.119942569
C  C3  1  0.31330000  0.41590000  0.05230000  1.0 0.119942569
C  C4  1  0.21850000  0.05230000  0.41590000  1.0 0.119942569
C  C5  1  0.32130000  0.95150000  0.99810000  1.0 -0.0886723422
C  C6  1  0.72910000  0.99810000  0.95150000  1.0 -0.0886723422
C  C7  1  0.25190000  0.52090000  0.92870000  1.0 -0.0886723422
C  C8  1  0.29850000  0.92870000  0.52090000  1.0 -0.0886723422
C  C9  1  0.35070000  0.00610000  0.90210000  1.0 -0.0398472673
C  C10  1  0.74110000  0.90210000  0.00610000  1.0 -0.0398472673
C  C11  1  0.34790000  0.50890000  0.89930000  1.0 -0.0398472673
C  C12  1  0.24390000  0.89930000  0.50890000  1.0 -0.0398472673
C  C13  1  0.15770000  0.92430000  0.10910000  1.0 -0.0799347568
C  C14  1  0.80890000  0.10910000  0.92430000  1.0 -0.0799347568
C  C15  1  0.14090000  0.44110000  0.09230000  1.0 -0.0799347568
C  C16  1  0.32570000  0.09230000  0.44110000  1.0 -0.0799347568
C  C17  1  0.14160000  0.84680000  0.09380000  1.0 0.0252642999
C  C18  1  0.91780000  0.09380000  0.84680000  1.0 0.0252642999
C  C19  1  0.15620000  0.33220000  0.10840000  1.0 0.0252642999
C  C20  1  0.40320000  0.10840000  0.33220000  1.0 0.0252642999
C  C21  1  0.24030000  0.74830000  0.08190000  1.0 -0.0018370052
C  C22  1  0.92950000  0.08190000  0.74830000  1.0 -0.0018370052
C  C23  1  0.16810000  0.32050000  0.00970000  1.0 -0.0018370052
C  C24  1  0.50170000  0.00970000  0.32050000  1.0 -0.0018370052
C  C25  1  0.23800000  0.68960000  0.02800000  1.0 -0.0466413856
C  C26  1  0.04440000  0.02800000  0.68960000  1.0 -0.0466413856
C  C27  1  0.22200000  0.20560000  0.01200000  1.0 -0.0466413856
C  C28  1  0.56040000  0.01200000  0.20560000  1.0 -0.0466413856
C  C29  1  0.05630000  0.71230000  0.07350000  1.0 0.1098020534
C  C30  1  0.15790000  0.07350000  0.71230000  1.0 0.1098020534
C  C31  1  0.17650000  0.09210000  0.19370000  1.0 0.1098020534
C  C32  1  0.53770000  0.19370000  0.09210000  1.0 0.1098020534
C  C33  1  0.12450000  0.61950000  0.18470000  1.0 -0.0018370052
C  C34  1  0.07130000  0.18470000  0.61950000  1.0 -0.0018370052
C  C35  1  0.06530000  0.17870000  0.12550000  1.0 -0.0018370052
C  C36  1  0.63050000  0.12550000  0.17870000  1.0 -0.0018370052
C  C37  1  0.02640000  0.62160000  0.22420000  1.0 0.0030392285
C  C38  1  0.12780000  0.22420000  0.62160000  1.0 0.0030392285
C  C39  1  0.02580000  0.12220000  0.22360000  1.0 0.0030392285
C  C40  1  0.62840000  0.22360000  0.12220000  1.0 0.0030392285
C  C41  1  0.92650000  0.93670000  0.57390000  1.0 0.0878780945
C  C42  1  0.56290000  0.57390000  0.93670000  1.0 0.0878780945
C  C43  1  0.67610000  0.68710000  0.32350000  1.0 0.0878780945
C  C44  1  0.31330000  0.32350000  0.68710000  1.0 0.0878780945
C  C45  1  0.87340000  0.10700000  0.50900000  1.0 -0.068250827
C  C46  1  0.51060000  0.50900000  0.10700000  1.0 -0.068250827
C  C47  1  0.74100000  0.73940000  0.37660000  1.0 -0.068250827
C  C48  1  0.14300000  0.37660000  0.73940000  1.0 -0.068250827
C  C49  1  0.80340000  0.08200000  0.59160000  1.0 -0.0799347568
C  C50  1  0.52300000  0.59160000  0.08200000  1.0 -0.0799347568
C  C51  1  0.65840000  0.72700000  0.44660000  1.0 -0.0799347568
C  C52  1  0.16800000  0.44660000  0.72700000  1.0 -0.0799347568
C  C53  1  0.77000000  0.92340000  0.71300000  1.0 -0.1231967867
C  C54  1  0.59360000  0.71300000  0.92340000  1.0 -0.1231967867
C  C55  1  0.53700000  0.65640000  0.48000000  1.0 -0.1231967867
C  C56  1  0.32660000  0.48000000  0.65640000  1.0 -0.1231967867
C  C57  1  0.68720000  0.93400000  0.68560000  1.0 -0.1998974034
C  C58  1  0.69320000  0.68560000  0.93400000  1.0 -0.1998974034
C  C59  1  0.56440000  0.55680000  0.56280000  1.0 -0.1998974034
C  C60  1  0.31600000  0.56280000  0.55680000  1.0 -0.1998974034
C  C61  1  0.73760000  0.90120000  0.58620000  1.0 -0.1895328038
C  C62  1  0.77500000  0.58620000  0.90120000  1.0 -0.1895328038
C  C63  1  0.66380000  0.47500000  0.51240000  1.0 -0.1895328038
C  C64  1  0.34880000  0.51240000  0.47500000  1.0 -0.1895328038
C  C65  1  0.66130000  0.88930000  0.56930000  1.0 -0.1038996824
C  C66  1  0.88010000  0.56930000  0.88930000  1.0 -0.1038996824
C  C67  1  0.68070000  0.36990000  0.58870000  1.0 -0.1038996824
C  C68  1  0.36070000  0.58870000  0.36990000  1.0 -0.1038996824
C  C69  1  0.47840000  0.00280000  0.64560000  1.0 0.119942569
C  C70  1  0.87320000  0.64560000  0.00280000  1.0 0.119942569
C  C71  1  0.60440000  0.37680000  0.77160000  1.0 0.119942569
C  C72  1  0.24720000  0.77160000  0.37680000  1.0 0.119942569
C  C73  1  0.56180000  0.07900000  0.49260000  1.0 -0.1038996824
C  C74  1  0.86660000  0.49260000  0.07900000  1.0 -0.1038996824
C  C75  1  0.75740000  0.38340000  0.68820000  1.0 -0.1038996824
C  C76  1  0.17100000  0.68820000  0.38340000  1.0 -0.1050068983
C  C77  1  0.46310000  0.14690000  0.53550000  1.0 -0.0398472673
C  C78  1  0.85450000  0.53550000  0.14690000  1.0 -0.0398472673
C  C79  1  0.71450000  0.39550000  0.78690000  1.0 -0.0398472673
C  C80  1  0.10310000  0.78690000  0.39550000  1.0 -0.0398472673
C  C81  1  0.18980000  0.81220000  0.11960000  1.0 0.0393529106
C  C82  1  0.87840000  0.11960000  0.81220000  1.0 0.0393529106
C  C83  1  0.13040000  0.37160000  0.06020000  1.0 0.0393529106
C  C84  1  0.43780000  0.06020000  0.37160000  1.0 0.0393529106
C  C85  1  0.21090000  0.80110000  0.01610000  1.0 -0.0076398969
C  C86  1  0.97190000  0.01610000  0.80110000  1.0 -0.0076398969
C  C87  1  0.23390000  0.27810000  0.03910000  1.0 -0.0076398969
C  C88  1  0.44890000  0.03910000  0.27810000  1.0 -0.0076398969
N  N1  1  0.27100000  0.06120000  0.86100000  1.0 -0.3154241739
N  N2  1  0.80680000  0.86100000  0.06120000  1.0 -0.3133825758
N  N3  1  0.38900000  0.44320000  0.97900000  1.0 -0.3154241739
N  N4  1  0.18880000  0.97900000  0.44320000  1.0 -0.3154241739
N  N5  1  0.22400000  0.96860000  0.01520000  1.0 0.0146319713
N  N6  1  0.79220000  0.01520000  0.96860000  1.0 0.0146319713
N  N7  1  0.23480000  0.45780000  0.02600000  1.0 0.0146319713
N  N8  1  0.28140000  0.02600000  0.45780000  1.0 0.0146319713
N  N9  1  0.98620000  0.68660000  0.15160000  1.0 -0.236402771
N  N10  1  0.17560000  0.15160000  0.68660000  1.0 -0.236402771
N  N11  1  0.09840000  0.07440000  0.26380000  1.0 -0.236402771
N  N12  1  0.56340000  0.26380000  0.07440000  1.0 -0.236402771
N  N13  1  0.14140000  0.67100000  0.09560000  1.0 0.0179369817
N  N14  1  0.09200000  0.09560000  0.67100000  1.0 0.0179369817
N  N15  1  0.15440000  0.15800000  0.10860000  1.0 0.0179369817
N  N16  1  0.57900000  0.10860000  0.15800000  1.0 0.0179369817
N  N17  1  0.83020000  0.98100000  0.62980000  1.0 0.0522925085
N  N18  1  0.55900000  0.62980000  0.98100000  1.0 0.0522925085
N  N19  1  0.62020000  0.69100000  0.41980000  1.0 0.0522925085
N  N20  1  0.26900000  0.41980000  0.69100000  1.0 0.0522925085
N  N21  1  0.96050000  0.00830000  0.49830000  1.0 -0.2933539026
N  N22  1  0.53290000  0.49830000  0.00830000  1.0 -0.2933539026
N  N23  1  0.75170000  0.71710000  0.28950000  1.0 -0.2933539026
N  N24  1  0.24170000  0.28950000  0.71710000  1.0 -0.2933539026
N  N25  1  0.41430000  0.09710000  0.62990000  1.0 -0.2838155278
N  N26  1  0.85870000  0.62990000  0.09710000  1.0 -0.2838155278
N  N27  1  0.62010000  0.39130000  0.83570000  1.0 -0.2838155278
N  N28  1  0.15290000  0.83570000  0.39130000  1.0 -0.2838155278
N  N29  1  0.56940000  0.98600000  0.56800000  1.0 0.0393529106
N  N30  1  0.87660000  0.56800000  0.98600000  1.0 0.0393529106
N  N31  1  0.68200000  0.37340000  0.68060000  1.0 0.0393529106
N  N32  1  0.26400000  0.68060000  0.37340000  1.0 0.0393529106
Cl  Cl1  1  0.87555000  0.92011000  0.29109000  1.0 1.2478571436
Cl  Cl2  1  0.91325000  0.29109000  0.92011000  1.0 1.2478571436
Cl  Cl3  1  0.95891000  0.33675000  0.37445000  1.0 1.2478571436
Cl  Cl4  1  0.32989000  0.37445000  0.33675000  1.0 1.2478571436
Cl  Cl5  1  0.48214000  0.81774000  0.18826000  1.0 1.2404682837
Cl  Cl6  1  0.51186000  0.18826000  0.81774000  1.0 1.2404682837
Cl  Cl7  1  0.06174000  0.73814000  0.76786000  1.0 1.2404682837
Cl  Cl8  1  0.43226000  0.76786000  0.73814000  1.0 1.2404682837
O  O1  1  0.90600000  0.82160000  0.35160000  1.0 -0.4585471251
O  O2  1  0.90320000  0.97640000  0.30980000  1.0 -0.4689695059
O  O3  1  0.92070000  0.92070000  0.18930000  1.0 -0.4815361039
O  O4  1  0.77000000  0.96580000  0.31720000  1.0 -0.4689695059
O  O5  1  0.92080000  0.35160000  0.82160000  1.0 -0.4585471251
O  O6  1  0.81060000  0.30980000  0.97640000  1.0 -0.4689695059
O  O7  1  0.96930000  0.18930000  0.92070000  1.0 -0.4815361039
O  O8  1  0.94700000  0.31720000  0.96580000  1.0 -0.4689695059
O  O9  1  0.89840000  0.32920000  0.34400000  1.0 -0.4585471251
O  O10  1  0.94020000  0.43940000  0.34680000  1.0 -0.4689695059
O  O11  1  0.06070000  0.28070000  0.32930000  1.0 -0.4815361039
O  O12  1  0.93280000  0.30300000  0.48000000  1.0 -0.4689695059
O  O13  1  0.42840000  0.34400000  0.32920000  1.0 -0.4585471251
O  O14  1  0.27360000  0.34680000  0.43940000  1.0 -0.4689695059
O  O15  1  0.32930000  0.32930000  0.28070000  1.0 -0.4815361039
O  O16  1  0.28420000  0.48000000  0.30300000  1.0 -0.4689695059
O  O17  1  0.44640000  0.81920000  0.28860000  1.0 -0.4689695059
O  O18  1  0.42710000  0.78810000  0.17290000  1.0 -0.4815361039
O  O19  1  0.58410000  0.75150000  0.15910000  1.0 -0.4585471251
O  O20  1  0.47120000  0.91560000  0.12580000  1.0 -0.4689695059
O  O21  1  0.44580000  0.28860000  0.81920000  1.0 -0.4689695059
O  O22  1  0.61190000  0.17290000  0.78810000  1.0 -0.4815361039
O  O23  1  0.50530000  0.15910000  0.75150000  1.0 -0.4585471251
O  O24  1  0.48740000  0.12580000  0.91560000  1.0 -0.4585471251
O  O25  1  0.96140000  0.80420000  0.80360000  1.0 -0.4689695059
O  O26  1  0.07710000  0.63810000  0.82290000  1.0 -0.4815361039
O  O27  1  0.09090000  0.74470000  0.66590000  1.0 -0.4585471251
O  O28  1  0.12420000  0.76260000  0.77880000  1.0 -0.4689695059
O  O29  1  0.43080000  0.80360000  0.80420000  1.0 -0.4689695059
O  O30  1  0.46190000  0.82290000  0.63810000  1.0 -0.4815361039
O  O31  1  0.49850000  0.66590000  0.74470000  1.0 -0.4585471251
O  O32  1  0.33440000  0.77880000  0.76260000  1.0 -0.4689695059
