# DDEC6 charges by PACMAN v1.1 (https://github.com/mtap-research/PACMAN-charge/)
data_YIXHIZ_ion_pacman
_symmetry_space_group_name_H-M   'P 1'
_cell_length_a   9.04460000
_cell_length_b   10.72700000
_cell_length_c   26.91100000
_cell_angle_alpha   90.00000000
_cell_angle_beta   90.00000000
_cell_angle_gamma   90.00000000
_symmetry_Int_Tables_number   1
_chemical_formula_structural   AgH16C23SN7(OF)3
_chemical_formula_sum   'Ag4 H64 C92 S4 N28 O12 F12'
_cell_volume   2610.94354665
_cell_formula_units_Z   4
loop_
 _symmetry_equiv_pos_site_id
 _symmetry_equiv_pos_as_xyz
  1  'x, y, z'
loop_
 _atom_site_type_symbol
 _atom_site_label
 _atom_site_symmetry_multiplicity
 _atom_site_fract_x
 _atom_site_fract_y
 _atom_site_fract_z
 _atom_site_occupancy
 _atom_site_charge
Ag  Ag1  1  0.25930000  0.95020000  0.39111000  1.0 0.2654453167
Ag  Ag2  1  0.75930000  0.04980000  0.60889000  1.0 0.2654453167
Ag  Ag3  1  0.25930000  0.54980000  0.89111000  1.0 0.2654453167
Ag  Ag4  1  0.75930000  0.45020000  0.10889000  1.0 0.2654453167
H  H1  1  0.58840000  0.81950000  0.22920000  1.0 0.1083427598
H  H2  1  0.65200000  0.72870000  0.15310000  1.0 0.1083427598
H  H3  1  0.78770000  0.41700000  0.22500000  1.0 0.0903312513
H  H4  1  0.72420000  0.50780000  0.30110000  1.0 0.1083427598
H  H5  1  0.90800000  0.89150000  0.37250000  1.0 0.1083427598
H  H6  1  0.22040000  0.64490000  0.39360000  1.0 0.1083427598
H  H7  1  0.05380000  0.48270000  0.38620000  1.0 0.135922859
H  H8  1  0.80000000  0.52960000  0.37310000  1.0 0.126743319
H  H9  1  0.55290000  0.04980000  0.42790000  1.0 0.135922859
H  H10  1  0.61080000  0.12500000  0.50670000  1.0 0.0999487
H  H11  1  0.78330000  0.80420000  0.54560000  1.0 0.0999487
H  H12  1  0.73220000  0.71800000  0.46930000  1.0 0.126743319
H  H13  1  0.85060000  0.74120000  0.26460000  1.0 0.0999487
H  H14  1  0.90280000  0.64570000  0.18840000  1.0 0.1201086961
H  H15  1  0.50100000  0.47860000  0.19060000  1.0 0.0774148763
H  H16  1  0.44880000  0.57400000  0.26680000  1.0 0.1201086961
H  H17  1  0.08840000  0.18050000  0.77080000  1.0 0.1083427598
H  H18  1  0.15200000  0.27130000  0.84690000  1.0 0.1083427598
H  H19  1  0.28770000  0.58300000  0.77500000  1.0 0.0903312513
H  H20  1  0.22420000  0.49220000  0.69890000  1.0 0.1083427598
H  H21  1  0.40800000  0.10850000  0.62750000  1.0 0.1083427598
H  H22  1  0.72040000  0.35510000  0.60640000  1.0 0.1083427598
H  H23  1  0.55380000  0.51730000  0.61380000  1.0 0.135922859
H  H24  1  0.30000000  0.47040000  0.62690000  1.0 0.126743319
H  H25  1  0.05290000  0.95020000  0.57210000  1.0 0.135922859
H  H26  1  0.11080000  0.87500000  0.49330000  1.0 0.0999487
H  H27  1  0.28330000  0.19580000  0.45440000  1.0 0.0999487
H  H28  1  0.23220000  0.28200000  0.53070000  1.0 0.126743319
H  H29  1  0.35060000  0.25880000  0.73540000  1.0 0.0999487
H  H30  1  0.40280000  0.35430000  0.81160000  1.0 0.1201086961
H  H31  1  0.00100000  0.52140000  0.80940000  1.0 0.0774148763
H  H32  1  0.94880000  0.42600000  0.73320000  1.0 0.1201086961
H  H33  1  0.58840000  0.68050000  0.72920000  1.0 0.1083427598
H  H34  1  0.65200000  0.77130000  0.65310000  1.0 0.1083427598
H  H35  1  0.78770000  0.08300000  0.72500000  1.0 0.0903312513
H  H36  1  0.72420000  0.99220000  0.80110000  1.0 0.1083427598
H  H37  1  0.90800000  0.60850000  0.87250000  1.0 0.1083427598
H  H38  1  0.22040000  0.85510000  0.89360000  1.0 0.1083427598
H  H39  1  0.05380000  0.01730000  0.88620000  1.0 0.135922859
H  H40  1  0.80000000  0.97040000  0.87310000  1.0 0.126743319
H  H41  1  0.55290000  0.45020000  0.92790000  1.0 0.135922859
H  H42  1  0.61080000  0.37500000  0.00670000  1.0 0.0999487
H  H43  1  0.78330000  0.69580000  0.04560000  1.0 0.0999487
H  H44  1  0.73220000  0.78200000  0.96930000  1.0 0.126743319
H  H45  1  0.85060000  0.75880000  0.76460000  1.0 0.0999487
H  H46  1  0.90280000  0.85430000  0.68840000  1.0 0.1201086961
H  H47  1  0.50100000  0.02140000  0.69060000  1.0 0.0774148763
H  H48  1  0.44880000  0.92600000  0.76680000  1.0 0.1201086961
H  H49  1  0.08840000  0.31950000  0.27080000  1.0 0.1083427598
H  H50  1  0.15200000  0.22870000  0.34690000  1.0 0.1083427598
H  H51  1  0.28770000  0.91700000  0.27500000  1.0 0.0903312513
H  H52  1  0.22420000  0.00780000  0.19890000  1.0 0.1083427598
H  H53  1  0.40800000  0.39150000  0.12750000  1.0 0.1083427598
H  H54  1  0.72040000  0.14490000  0.10640000  1.0 0.1083427598
H  H55  1  0.55380000  0.98270000  0.11380000  1.0 0.135922859
H  H56  1  0.30000000  0.02960000  0.12690000  1.0 0.126743319
H  H57  1  0.05290000  0.54980000  0.07210000  1.0 0.135922859
H  H58  1  0.11080000  0.62500000  0.99330000  1.0 0.0999487
H  H59  1  0.28330000  0.30420000  0.95440000  1.0 0.0999487
H  H60  1  0.23220000  0.21800000  0.03070000  1.0 0.126743319
H  H61  1  0.35060000  0.24120000  0.23540000  1.0 0.0999487
H  H62  1  0.40280000  0.14570000  0.31160000  1.0 0.1201086961
H  H63  1  0.00100000  0.97860000  0.30940000  1.0 0.0774148763
H  H64  1  0.94880000  0.07400000  0.23320000  1.0 0.1201086961
C  C1  1  0.65030000  0.67220000  0.27229000  1.0 0.0309165875
C  C2  1  0.62890000  0.73780000  0.22830000  1.0 -0.0998053863
C  C3  1  0.66666667  0.68380000  0.18312000  1.0 0.0597174047
C  C4  1  0.74730000  0.49870000  0.22580000  1.0 0.0597174047
C  C5  1  0.70950000  0.55260000  0.27104000  1.0 -0.0820798255
C  C6  1  0.60060000  0.73430000  0.31845000  1.0 0.189266304
C  C7  1  0.59620000  0.82670000  0.39090000  1.0 0.2161734277
C  C8  1  0.83540000  0.71560000  0.37040000  1.0 0.1083427598
C  C9  1  0.93870000  0.80710000  0.37540000  1.0 -0.0656225593
C  C10  1  0.11940000  0.66420000  0.38770000  1.0 0.0680059069
C  C11  1  0.02100000  0.56650000  0.38350000  1.0 -0.0998053863
C  C12  1  0.87230000  0.59360000  0.37530000  1.0 -0.1495389766
C  C13  1  0.63570000  0.87380000  0.44010000  1.0 0.0597174047
C  C14  1  0.60010000  0.99740000  0.45160000  1.0 -0.1865456342
C  C15  1  0.63600000  0.04140000  0.49880000  1.0 0.0903312513
C  C16  1  0.73620000  0.85450000  0.52130000  1.0 0.0597174047
C  C17  1  0.70580000  0.80200000  0.47600000  1.0 -0.1793632031
C  C18  1  0.64480000  0.66666667  0.27289000  1.0 0.0309165875
C  C19  1  0.77970000  0.68790000  0.24960000  1.0 -0.0998053863
C  C20  1  0.81070000  0.63120000  0.20440000  1.0 0.0999487
C  C21  1  0.57200000  0.53190000  0.20570000  1.0 0.0441503697
C  C22  1  0.54100000  0.58860000  0.25090000  1.0 -0.0820798255
C  C23  1  0.15030000  0.32780000  0.72771000  1.0 0.0309165875
C  C24  1  0.12890000  0.26220000  0.77170000  1.0 -0.0998053863
C  C25  1  0.16667000  0.31620000  0.81688000  1.0 0.0597174047
C  C26  1  0.24730000  0.50130000  0.77420000  1.0 0.0597174047
C  C27  1  0.20950000  0.44740000  0.72896000  1.0 -0.0820798255
C  C28  1  0.10060000  0.26570000  0.68155000  1.0 0.189266304
C  C29  1  0.09620000  0.17330000  0.60910000  1.0 0.2161734277
C  C30  1  0.33540000  0.28440000  0.62960000  1.0 0.1083427598
C  C31  1  0.43870000  0.19290000  0.62460000  1.0 -0.0656225593
C  C32  1  0.61940000  0.33580000  0.61230000  1.0 0.0680059069
C  C33  1  0.52100000  0.43350000  0.61650000  1.0 -0.0998053863
C  C34  1  0.37230000  0.40640000  0.62470000  1.0 -0.1495389766
C  C35  1  0.13570000  0.12620000  0.55990000  1.0 0.0597174047
C  C36  1  0.10010000  0.00260000  0.54840000  1.0 -0.1865456342
C  C37  1  0.13600000  0.95860000  0.50120000  1.0 0.0903312513
C  C38  1  0.23620000  0.14550000  0.47870000  1.0 0.0597174047
C  C39  1  0.20580000  0.19800000  0.52400000  1.0 -0.1793632031
C  C40  1  0.14480000  0.33333333  0.72711000  1.0 0.0309165875
C  C41  1  0.27970000  0.31210000  0.75040000  1.0 -0.0998053863
C  C42  1  0.31070000  0.36880000  0.79560000  1.0 0.0999487
C  C43  1  0.07200000  0.46810000  0.79430000  1.0 0.0441503697
C  C44  1  0.04100000  0.41140000  0.74910000  1.0 -0.0820798255
C  C45  1  0.65030000  0.82780000  0.77229000  1.0 0.0309165875
C  C46  1  0.62890000  0.76220000  0.72830000  1.0 -0.0998053863
C  C47  1  0.66666667  0.81620000  0.68312000  1.0 0.0597174047
C  C48  1  0.74730000  0.00130000  0.72580000  1.0 0.0597174047
C  C49  1  0.70950000  0.94740000  0.77104000  1.0 -0.0820798255
C  C50  1  0.60060000  0.76570000  0.81845000  1.0 0.189266304
C  C51  1  0.59620000  0.67330000  0.89090000  1.0 0.2161734277
C  C52  1  0.83540000  0.78440000  0.87040000  1.0 0.1083427598
C  C53  1  0.93870000  0.69290000  0.87540000  1.0 -0.0656225593
C  C54  1  0.11940000  0.83580000  0.88770000  1.0 0.0680059069
C  C55  1  0.02100000  0.93350000  0.88350000  1.0 -0.0998053863
C  C56  1  0.87230000  0.90640000  0.87530000  1.0 -0.1495389766
C  C57  1  0.63570000  0.62620000  0.94010000  1.0 0.0597174047
C  C58  1  0.60010000  0.50260000  0.95160000  1.0 -0.1865456342
C  C59  1  0.63600000  0.45860000  0.99880000  1.0 0.0903312513
C  C60  1  0.73620000  0.64550000  0.02130000  1.0 0.0597174047
C  C61  1  0.70580000  0.69800000  0.97600000  1.0 -0.1745791338
C  C62  1  0.64480000  0.83333000  0.77289000  1.0 0.0309165875
C  C63  1  0.77970000  0.81210000  0.74960000  1.0 -0.0998053863
C  C64  1  0.81070000  0.86880000  0.70440000  1.0 0.0999487
C  C65  1  0.57200000  0.96810000  0.70570000  1.0 0.0441503697
C  C66  1  0.54100000  0.91140000  0.75090000  1.0 -0.0820798255
C  C67  1  0.15030000  0.17220000  0.22771000  1.0 0.0309165875
C  C68  1  0.12890000  0.23780000  0.27170000  1.0 -0.0998053863
C  C69  1  0.16667000  0.18380000  0.31688000  1.0 0.0597174047
C  C70  1  0.24730000  0.99870000  0.27420000  1.0 0.0597174047
C  C71  1  0.20950000  0.05260000  0.22896000  1.0 -0.0820798255
C  C72  1  0.10060000  0.23430000  0.18155000  1.0 0.189266304
C  C73  1  0.09620000  0.32670000  0.10910000  1.0 0.2161734277
C  C74  1  0.33540000  0.21560000  0.12960000  1.0 0.1083427598
C  C75  1  0.43870000  0.30710000  0.12460000  1.0 -0.0656225593
C  C76  1  0.61940000  0.16420000  0.11230000  1.0 0.0680059069
C  C77  1  0.52100000  0.06650000  0.11650000  1.0 -0.0998053863
C  C78  1  0.37230000  0.09360000  0.12470000  1.0 -0.1495389766
C  C79  1  0.13570000  0.37380000  0.05990000  1.0 0.0597174047
C  C80  1  0.10010000  0.49740000  0.04840000  1.0 -0.1865456342
C  C81  1  0.13600000  0.54140000  0.00120000  1.0 0.0903312513
C  C82  1  0.23620000  0.35450000  0.97870000  1.0 0.0597174047
C  C83  1  0.20580000  0.30200000  0.02400000  1.0 -0.1793632031
C  C84  1  0.14480000  0.16667000  0.22711000  1.0 0.0309165875
C  C85  1  0.27970000  0.18790000  0.25040000  1.0 -0.0998053863
C  C86  1  0.31070000  0.13120000  0.29560000  1.0 0.0999487
C  C87  1  0.07200000  0.03190000  0.29430000  1.0 0.0441503697
C  C88  1  0.04100000  0.08860000  0.24910000  1.0 -0.0820798255
C  C89  1  0.50790000  0.46330000  0.45910000  1.0 0.4789427169
C  C90  1  0.00790000  0.53670000  0.54090000  1.0 0.4789427169
C  C91  1  0.50790000  0.03670000  0.95910000  1.0 0.4789427169
C  C92  1  0.00790000  0.96330000  0.04090000  1.0 0.4789427169
S  S1  1  0.45900000  0.39450000  0.39975000  1.0 0.960044811
S  S2  1  0.95900000  0.60550000  0.60025000  1.0 0.960044811
S  S3  1  0.45900000  0.10550000  0.89975000  1.0 0.960044811
S  S4  1  0.95900000  0.89450000  0.10025000  1.0 0.960044811
N  N1  1  0.47190000  0.78900000  0.32260000  1.0 -0.2439054004
N  N2  1  0.46860000  0.84520000  0.36870000  1.0 -0.2113004229
N  N3  1  0.68480000  0.75260000  0.36130000  1.0 -0.1392573244
N  N4  1  0.70290000  0.97380000  0.53330000  1.0 -0.2151575438
N  N5  1  0.08210000  0.78310000  0.38420000  1.0 -0.2113004229
N  N6  1  0.72580000  0.56430000  0.18186000  1.0 -0.0998053863
N  N7  1  0.70680000  0.55320000  0.18237000  1.0 -0.1495389766
N  N8  1  0.97190000  0.21100000  0.67740000  1.0 -0.2439054004
N  N9  1  0.96860000  0.15480000  0.63130000  1.0 -0.2113004229
N  N10  1  0.18480000  0.24740000  0.63870000  1.0 -0.1392573244
N  N11  1  0.20290000  0.02620000  0.46670000  1.0 -0.2151575438
N  N12  1  0.58210000  0.21690000  0.61580000  1.0 -0.2113004229
N  N13  1  0.22580000  0.43570000  0.81814000  1.0 -0.0998053863
N  N14  1  0.20680000  0.44680000  0.81763000  1.0 -0.1495389766
N  N15  1  0.47190000  0.71100000  0.82260000  1.0 -0.2439054004
N  N16  1  0.46860000  0.65480000  0.86870000  1.0 -0.2113004229
N  N17  1  0.68480000  0.74740000  0.86130000  1.0 -0.1392573244
N  N18  1  0.70290000  0.52620000  0.03330000  1.0 -0.2151575438
N  N19  1  0.08210000  0.71690000  0.88420000  1.0 -0.2113004229
N  N20  1  0.72580000  0.93570000  0.68186000  1.0 -0.0998053863
N  N21  1  0.70680000  0.94680000  0.68237000  1.0 -0.1495389766
N  N22  1  0.97190000  0.28900000  0.17740000  1.0 -0.2439054004
N  N23  1  0.96860000  0.34520000  0.13130000  1.0 -0.2113004229
N  N24  1  0.18480000  0.25260000  0.13870000  1.0 -0.1392573244
N  N25  1  0.20290000  0.47380000  0.96670000  1.0 -0.2151575438
N  N26  1  0.58210000  0.28310000  0.11580000  1.0 -0.2113004229
N  N27  1  0.22580000  0.06430000  0.31814000  1.0 -0.0998053863
N  N28  1  0.20680000  0.05320000  0.31763000  1.0 -0.1495389766
O  O1  1  0.52470000  0.27330000  0.40200000  1.0 -0.5865576915
O  O2  1  0.30050000  0.39300000  0.40140000  1.0 -0.5840389184
O  O3  1  0.52290000  0.47970000  0.36540000  1.0 -0.5666258386
O  O4  1  0.02470000  0.72670000  0.59800000  1.0 -0.5865576915
O  O5  1  0.80050000  0.60700000  0.59860000  1.0 -0.5840389184
O  O6  1  0.02290000  0.52030000  0.63460000  1.0 -0.5666258386
O  O7  1  0.52470000  0.22670000  0.90200000  1.0 -0.5865576915
O  O8  1  0.30050000  0.10700000  0.90140000  1.0 -0.5840389184
O  O9  1  0.52290000  0.02030000  0.86540000  1.0 -0.5666258386
O  O10  1  0.02470000  0.77330000  0.09800000  1.0 -0.5865576915
O  O11  1  0.80050000  0.89300000  0.09860000  1.0 -0.5840389184
O  O12  1  0.02290000  0.97970000  0.13460000  1.0 -0.5666258386
F  F1  1  0.65420000  0.47360000  0.46480000  1.0 -0.1793632031
F  F2  1  0.46380000  0.39070000  0.49700000  1.0 -0.1865456342
F  F3  1  0.45060000  0.57670000  0.46360000  1.0 -0.1793632031
F  F4  1  0.15420000  0.52640000  0.53520000  1.0 -0.1793632031
F  F5  1  0.96380000  0.60930000  0.50300000  1.0 -0.1865456342
F  F6  1  0.95060000  0.42330000  0.53640000  1.0 -0.1793632031
F  F7  1  0.65420000  0.02640000  0.96480000  1.0 -0.1793632031
F  F8  1  0.46380000  0.10930000  0.99700000  1.0 -0.1865456342
F  F9  1  0.45060000  0.92330000  0.96360000  1.0 -0.1793632031
F  F10  1  0.15420000  0.97360000  0.03520000  1.0 -0.1793632031
F  F11  1  0.96380000  0.89070000  0.00300000  1.0 -0.1865456342
F  F12  1  0.95060000  0.07670000  0.03640000  1.0 -0.1793632031
