# DDEC6 charges by PACMAN v1.1 (https://github.com/mtap-research/PACMAN-charge/)
data_YIYJIC_FSR_pacman
_symmetry_space_group_name_H-M   'P 1'
_cell_length_a   20.61280000
_cell_length_b   20.61280000
_cell_length_c   20.61280000
_cell_angle_alpha   148.63100000
_cell_angle_beta   143.67700000
_cell_angle_gamma   48.73620000
_symmetry_Int_Tables_number   1
_chemical_formula_structural   TbZn2H13C17N6(O5F3)3
_chemical_formula_sum   'Tb4 Zn8 H52 C68 N24 O60 F36'
_cell_volume   2688.99729240
_cell_formula_units_Z   4
loop_
 _symmetry_equiv_pos_site_id
 _symmetry_equiv_pos_as_xyz
  1  'x, y, z'
loop_
 _atom_site_type_symbol
 _atom_site_label
 _atom_site_symmetry_multiplicity
 _atom_site_fract_x
 _atom_site_fract_y
 _atom_site_fract_z
 _atom_site_occupancy
 _atom_site_charge
Tb  Tb1  1  0.49483000  0.74483000  0.75000000  1.0 1.9883248243
Tb  Tb2  1  0.75102000  0.00102000  0.75000000  1.0 2.0671202573
Tb  Tb3  1  0.50517000  0.25517000  0.25000000  1.0 1.9883248243
Tb  Tb4  1  0.24898000  0.99898000  0.25000000  1.0 2.0671202573
Zn  Zn1  1  0.63409000  0.34026000  0.71389000  1.0 0.7510010036
Zn  Zn2  1  0.12637000  0.92020000  0.78611000  1.0 0.7510010036
Zn  Zn3  1  0.12637000  0.34026000  0.20617000  1.0 0.7510010036
Zn  Zn4  1  0.63409000  0.92020000  0.29383000  1.0 0.7510010036
Zn  Zn5  1  0.87363000  0.65974000  0.79383000  1.0 0.7510010036
Zn  Zn6  1  0.36591000  0.07980000  0.70617000  1.0 0.7510010036
Zn  Zn7  1  0.36591000  0.65974000  0.28611000  1.0 0.7510010036
Zn  Zn8  1  0.87363000  0.07980000  0.21389000  1.0 0.7510010036
H  H1  1  0.60620000  0.94670000  0.95610000  1.0 0.2124403723
H  H2  1  0.74480000  0.78010000  0.92970000  1.0 0.3323413165
H  H3  1  0.71120000  0.71490000  0.90170000  1.0 0.156143697
H  H4  1  0.67600000  0.20120000  0.96240000  1.0 0.151171847
H  H5  1  0.76130000  0.12800000  0.97710000  1.0 0.151171847
H  H6  1  0.49060000  0.65010000  0.54390000  1.0 0.2124403723
H  H7  1  0.35040000  0.81510000  0.57030000  1.0 0.3323413165
H  H8  1  0.31320000  0.80950000  0.59830000  1.0 0.156143697
H  H9  1  0.73880000  0.71360000  0.53760000  1.0 0.151171847
H  H10  1  0.65090000  0.78420000  0.52290000  1.0 0.151171847
H  H11  1  0.49060000  0.94670000  0.84050000  1.0 0.2124403723
H  H12  1  0.35040000  0.78010000  0.53530000  1.0 0.3323413165
H  H13  1  0.31320000  0.71490000  0.50370000  1.0 0.156143697
H  H14  1  0.73880000  0.20120000  0.02520000  1.0 0.151171847
H  H15  1  0.65090000  0.12800000  0.86670000  1.0 0.151171847
H  H16  1  0.60620000  0.65010000  0.65950000  1.0 0.2124403723
H  H17  1  0.74480000  0.81510000  0.96470000  1.0 0.3323413165
H  H18  1  0.71120000  0.80950000  0.99630000  1.0 0.156143697
H  H19  1  0.67600000  0.71360000  0.47480000  1.0 0.151171847
H  H20  1  0.76130000  0.78420000  0.63330000  1.0 0.151171847
H  H21  1  0.53750000  0.01210000  0.97460000  1.0 0.2124403723
H  H22  1  0.53750000  0.56290000  0.52540000  1.0 0.2124403723
H  H23  1  0.92540000  0.96310000  0.96230000  1.0 0.3323413165
H  H24  1  0.82800000  0.93830000  0.88970000  1.0 0.2725022169
H  H25  1  0.50080000  0.96310000  0.53770000  1.0 0.3323413165
H  H26  1  0.54860000  0.93830000  0.61030000  1.0 0.2725022169
H  H27  1  0.50940000  0.05330000  0.15950000  1.0 0.2124403723
H  H28  1  0.64960000  0.21990000  0.46470000  1.0 0.3323413165
H  H29  1  0.68680000  0.28510000  0.49630000  1.0 0.156143697
H  H30  1  0.26120000  0.79880000  0.97480000  1.0 0.151171847
H  H31  1  0.34910000  0.87200000  0.13330000  1.0 0.151171847
H  H32  1  0.39380000  0.34990000  0.34050000  1.0 0.2124403723
H  H33  1  0.25520000  0.18490000  0.03530000  1.0 0.3323413165
H  H34  1  0.28880000  0.19050000  0.00370000  1.0 0.151171847
H  H35  1  0.32400000  0.28640000  0.52520000  1.0 0.151171847
H  H36  1  0.23870000  0.21580000  0.36670000  1.0 0.151171847
H  H37  1  0.39380000  0.05330000  0.04390000  1.0 0.2124403723
H  H38  1  0.25520000  0.21990000  0.07030000  1.0 0.3323413165
H  H39  1  0.28880000  0.28510000  0.09830000  1.0 0.156143697
H  H40  1  0.32400000  0.79880000  0.03760000  1.0 0.151171847
H  H41  1  0.23870000  0.87200000  0.02290000  1.0 0.151171847
H  H42  1  0.50940000  0.34990000  0.45610000  1.0 0.2124403723
H  H43  1  0.64960000  0.18490000  0.42970000  1.0 0.3323413165
H  H44  1  0.68680000  0.19050000  0.40170000  1.0 0.156143697
H  H45  1  0.26120000  0.28640000  0.46240000  1.0 0.151171847
H  H46  1  0.34910000  0.21580000  0.47710000  1.0 0.151171847
H  H47  1  0.46250000  0.98790000  0.02540000  1.0 0.2124403723
H  H48  1  0.46250000  0.43710000  0.47460000  1.0 0.2124403723
H  H49  1  0.49920000  0.03690000  0.46230000  1.0 0.3323413165
H  H50  1  0.45140000  0.06170000  0.38970000  1.0 0.2725022169
H  H51  1  0.07460000  0.03690000  0.03770000  1.0 0.3323413165
H  H52  1  0.17200000  0.06170000  0.11030000  1.0 0.2725022169
C  C1  1  0.61260000  0.53460000  0.76740000  1.0 0.5802639159
C  C2  1  0.62160000  0.60190000  0.89410000  1.0 -0.0188481618
C  C3  1  0.68080000  0.21630000  0.76590000  1.0 0.5961967813
C  C4  1  0.79130000  0.25270000  0.85740000  1.0 0.0013438225
C  C5  1  0.42470000  0.19370000  0.37500000  1.0 0.0529821212
C  C6  1  0.26720000  0.84520000  0.73260000  1.0 0.5802639159
C  C7  1  0.20780000  0.72750000  0.60590000  1.0 -0.0188481618
C  C8  1  0.95040000  0.91490000  0.73410000  1.0 0.5961967813
C  C9  1  0.89530000  0.93390000  0.64260000  1.0 0.0013438225
C  C10  1  0.31870000  0.04970000  0.12500000  1.0 0.0529821212
C  C11  1  0.26720000  0.53460000  0.42200000  1.0 0.5802639159
C  C12  1  0.20780000  0.60190000  0.48030000  1.0 -0.0188481618
C  C13  1  0.95040000  0.21630000  0.03550000  1.0 0.5961967813
C  C14  1  0.89530000  0.25270000  0.96140000  1.0 0.0013438225
C  C15  1  0.31870000  0.19370000  0.26900000  1.0 0.0529821212
C  C16  1  0.61260000  0.84520000  0.07800000  1.0 0.5802639159
C  C17  1  0.62160000  0.72750000  0.01970000  1.0 -0.0188481618
C  C18  1  0.68080000  0.91490000  0.46450000  1.0 0.5961967813
C  C19  1  0.79130000  0.93390000  0.53860000  1.0 0.0013438225
C  C20  1  0.42470000  0.04970000  0.23100000  1.0 0.0529821212
C  C21  1  0.64500000  0.61540000  0.02960000  1.0 0.0260228426
C  C22  1  0.66570000  0.58280000  0.08290000  1.0 0.5495906207
C  C23  1  0.08580000  0.61540000  0.47040000  1.0 0.0260228426
C  C24  1  0.99990000  0.58280000  0.41710000  1.0 0.5495906207
C  C25  1  0.89570000  0.33230000  0.93660000  1.0 0.156143697
C  C26  1  0.93640000  0.39440000  0.95800000  1.0 0.4939529332
C  C27  1  0.89570000  0.95910000  0.56340000  1.0 0.156143697
C  C28  1  0.93640000  0.97840000  0.54200000  1.0 0.4939529332
C  C29  1  0.36130000  0.37130000  0.51000000  1.0 -0.1942618308
C  C30  1  0.34890000  0.45990000  0.61100000  1.0 0.2859222698
C  C31  1  0.36130000  0.85130000  0.99000000  1.0 -0.1942618308
C  C32  1  0.34890000  0.73790000  0.88900000  1.0 0.2859222698
C  C33  1  0.50980000  0.12710000  0.38270000  1.0 0.2447188529
C  C34  1  0.24440000  0.12710000  0.11730000  1.0 0.2447188529
C  C35  1  0.73280000  0.46540000  0.57800000  1.0 0.5802639159
C  C36  1  0.79220000  0.39810000  0.51970000  1.0 -0.0188481618
C  C37  1  0.04960000  0.78370000  0.96450000  1.0 0.5961967813
C  C38  1  0.10470000  0.74730000  0.03860000  1.0 0.0013438225
C  C39  1  0.68130000  0.80630000  0.73100000  1.0 0.0529821212
C  C40  1  0.38740000  0.15480000  0.92200000  1.0 0.5802639159
C  C41  1  0.37840000  0.27250000  0.98030000  1.0 -0.0188481618
C  C42  1  0.31920000  0.08510000  0.53550000  1.0 0.5961967813
C  C43  1  0.20870000  0.06610000  0.46140000  1.0 0.0013438225
C  C44  1  0.57530000  0.95030000  0.76900000  1.0 0.0529821212
C  C45  1  0.38740000  0.46540000  0.23260000  1.0 0.5802639159
C  C46  1  0.37840000  0.39810000  0.10590000  1.0 -0.0188481618
C  C47  1  0.31920000  0.78370000  0.23410000  1.0 0.5961967813
C  C48  1  0.20870000  0.74730000  0.14260000  1.0 0.0013438225
C  C49  1  0.57530000  0.80630000  0.62500000  1.0 0.0529821212
C  C50  1  0.73280000  0.15480000  0.26740000  1.0 0.5802639159
C  C51  1  0.79220000  0.27250000  0.39410000  1.0 -0.0188481618
C  C52  1  0.04960000  0.08510000  0.26590000  1.0 0.5961967813
C  C53  1  0.10470000  0.06610000  0.35740000  1.0 0.0013438225
C  C54  1  0.68130000  0.95030000  0.87500000  1.0 0.0529821212
C  C55  1  0.91420000  0.38460000  0.52960000  1.0 0.0260228426
C  C56  1  0.00010000  0.41720000  0.58290000  1.0 0.5495906207
C  C57  1  0.35500000  0.38460000  0.97040000  1.0 0.0260228426
C  C58  1  0.33430000  0.41720000  0.91710000  1.0 0.5495906207
C  C59  1  0.10430000  0.66770000  0.06340000  1.0 0.156143697
C  C60  1  0.06360000  0.60560000  0.04200000  1.0 0.4939529332
C  C61  1  0.10430000  0.04090000  0.43660000  1.0 0.156143697
C  C62  1  0.06360000  0.02160000  0.45800000  1.0 0.4939529332
C  C63  1  0.63870000  0.62870000  0.49000000  1.0 -0.1942618308
C  C64  1  0.65110000  0.54010000  0.38900000  1.0 0.2859222698
C  C65  1  0.63870000  0.14870000  0.01000000  1.0 -0.1942618308
C  C66  1  0.65110000  0.26210000  0.11100000  1.0 0.2859222698
C  C67  1  0.75560000  0.87290000  0.88270000  1.0 0.2447188529
C  C68  1  0.49020000  0.87290000  0.61730000  1.0 0.2447188529
N  N1  1  0.63570000  0.52930000  0.89940000  1.0 -0.4375528251
N  N2  1  0.79130000  0.30450000  0.84040000  1.0 -0.3171928791
N  N3  1  0.45140000  0.30670000  0.52670000  1.0 -0.0784570592
N  N4  1  0.12990000  0.73630000  0.60060000  1.0 -0.4375528251
N  N5  1  0.96410000  0.95090000  0.65960000  1.0 -0.3171928791
N  N6  1  0.28000000  0.92470000  0.97330000  1.0 -0.0784570592
N  N7  1  0.12990000  0.52930000  0.39360000  1.0 -0.4375528251
N  N8  1  0.96410000  0.30450000  0.01320000  1.0 -0.3171928791
N  N9  1  0.28000000  0.30670000  0.35530000  1.0 -0.0784570592
N  N10  1  0.63570000  0.73630000  0.10640000  1.0 -0.4340427486
N  N11  1  0.79130000  0.95090000  0.48680000  1.0 -0.3171928791
N  N12  1  0.45140000  0.92470000  0.14470000  1.0 -0.0784570592
N  N13  1  0.87010000  0.47070000  0.60640000  1.0 -0.4375528251
N  N14  1  0.03590000  0.69550000  0.98680000  1.0 -0.3171928791
N  N15  1  0.72000000  0.69330000  0.64470000  1.0 -0.0784570592
N  N16  1  0.36430000  0.26370000  0.89360000  1.0 -0.4375528251
N  N17  1  0.20870000  0.04910000  0.51320000  1.0 -0.3171928791
N  N18  1  0.54860000  0.07530000  0.85530000  1.0 -0.0784570592
N  N19  1  0.36430000  0.47070000  0.10060000  1.0 -0.4340427486
N  N20  1  0.20870000  0.69550000  0.15960000  1.0 -0.3171928791
N  N21  1  0.54860000  0.69330000  0.47330000  1.0 -0.0784570592
N  N22  1  0.87010000  0.26370000  0.39940000  1.0 -0.4375528251
N  N23  1  0.03590000  0.04910000  0.34040000  1.0 -0.3171928791
N  N24  1  0.72000000  0.07530000  0.02670000  1.0 -0.0784570592
O  O1  1  0.63620000  0.42290000  0.69210000  1.0 -0.549474646
O  O2  1  0.57810000  0.58740000  0.73570000  1.0 -0.6579748882
O  O3  1  0.59970000  0.24890000  0.70020000  1.0 -0.5058989493
O  O4  1  0.67620000  0.15600000  0.76340000  1.0 -0.6544145388
O  O5  1  0.48640000  0.99660000  0.23400000  1.0 -0.0036521876
O  O6  1  0.23080000  0.94410000  0.80790000  1.0 -0.549474646
O  O7  1  0.35170000  0.84240000  0.76430000  1.0 -0.6579748882
O  O8  1  0.04870000  0.89950000  0.79980000  1.0 -0.5058989493
O  O9  1  0.89260000  0.91280000  0.73660000  1.0 -0.6544145388
O  O10  1  0.26260000  0.25240000  0.26600000  1.0 -0.0036521876
O  O11  1  0.23080000  0.42290000  0.28670000  1.0 -0.549474646
O  O12  1  0.35170000  0.58740000  0.50930000  1.0 -0.6579748882
O  O13  1  0.04870000  0.24890000  0.14920000  1.0 -0.5058989493
O  O14  1  0.89260000  0.15600000  0.97980000  1.0 -0.6544145388
O  O15  1  0.26260000  0.99660000  0.01020000  1.0 -0.0036521876
O  O16  1  0.63620000  0.94410000  0.21330000  1.0 -0.549474646
O  O17  1  0.57810000  0.84240000  0.99070000  1.0 -0.6579748882
O  O18  1  0.59970000  0.89950000  0.35080000  1.0 -0.5058989493
O  O19  1  0.67620000  0.91280000  0.52020000  1.0 -0.6544145388
O  O20  1  0.48640000  0.25240000  0.48980000  1.0 -0.0036521876
O  O21  1  0.69940000  0.77730000  0.92210000  1.0 -0.5903550056
O  O22  1  0.35520000  0.77730000  0.57790000  1.0 -0.5903550056
O  O23  1  0.71780000  0.15420000  0.93640000  1.0 -0.5779990373
O  O24  1  0.71780000  0.78140000  0.56360000  1.0 -0.5779990373
O  O25  1  0.53740000  0.93570000  0.89830000  1.0 -0.705646154
O  O26  1  0.53740000  0.63910000  0.60170000  1.0 -0.705646154
O  O27  1  0.85720000  0.96080000  0.89640000  1.0 -0.7524631587
O  O28  1  0.61000000  0.13540000  0.47460000  1.0 -0.4375528251
O  O29  1  0.56440000  0.96080000  0.60360000  1.0 -0.7524631587
O  O30  1  0.16080000  0.13540000  0.02540000  1.0 -0.4375528251
O  O31  1  0.76920000  0.57710000  0.71330000  1.0 -0.549474646
O  O32  1  0.64830000  0.41260000  0.49070000  1.0 -0.6579748882
O  O33  1  0.95130000  0.75110000  0.85080000  1.0 -0.5058989493
O  O34  1  0.10740000  0.84400000  0.02020000  1.0 -0.6544145388
O  O35  1  0.73740000  0.00340000  0.98980000  1.0 -0.0036521876
O  O36  1  0.36380000  0.05590000  0.78670000  1.0 -0.549474646
O  O37  1  0.42190000  0.15760000  0.00930000  1.0 -0.6579748882
O  O38  1  0.40030000  0.10050000  0.64920000  1.0 -0.5058989493
O  O39  1  0.32380000  0.08720000  0.47980000  1.0 -0.6544145388
O  O40  1  0.51360000  0.74760000  0.51020000  1.0 -0.0036521876
O  O41  1  0.36380000  0.57710000  0.30790000  1.0 -0.549474646
O  O42  1  0.42190000  0.41260000  0.26430000  1.0 -0.6579748882
O  O43  1  0.40030000  0.75110000  0.29980000  1.0 -0.5058989493
O  O44  1  0.32380000  0.84400000  0.23660000  1.0 -0.6544145388
O  O45  1  0.51360000  0.00340000  0.76600000  1.0 -0.0036521876
O  O46  1  0.76920000  0.05590000  0.19210000  1.0 -0.549474646
O  O47  1  0.64830000  0.15760000  0.23570000  1.0 -0.6579748882
O  O48  1  0.95130000  0.10050000  0.20020000  1.0 -0.5058989493
O  O49  1  0.10740000  0.08720000  0.26340000  1.0 -0.6544145388
O  O50  1  0.73740000  0.74760000  0.73400000  1.0 -0.0036521876
O  O51  1  0.64480000  0.22270000  0.42210000  1.0 -0.5903550056
O  O52  1  0.30060000  0.22270000  0.07790000  1.0 -0.5903550056
O  O53  1  0.28220000  0.84580000  0.06360000  1.0 -0.5779990373
O  O54  1  0.28220000  0.21860000  0.43640000  1.0 -0.5779990373
O  O55  1  0.46260000  0.06430000  0.10170000  1.0 -0.705646154
O  O56  1  0.46260000  0.36090000  0.39830000  1.0 -0.705646154
O  O57  1  0.43560000  0.03920000  0.39640000  1.0 -0.7524631587
O  O58  1  0.83920000  0.86460000  0.97460000  1.0 -0.4451729623
O  O59  1  0.14280000  0.03920000  0.10360000  1.0 -0.7524631587
O  O60  1  0.39000000  0.86460000  0.52540000  1.0 -0.4451729623
F  F1  1  0.70490000  0.48130000  0.03820000  1.0 -0.1312247855
F  F2  1  0.87410000  0.38190000  0.85220000  1.0 -0.141205926
F  F3  1  0.24910000  0.48530000  0.56980000  1.0 -0.141205926
F  F4  1  0.94310000  0.66666667  0.46180000  1.0 -0.1312247855
F  F5  1  0.02970000  0.02190000  0.64780000  1.0 -0.141205926
F  F6  1  0.41550000  0.67930000  0.93020000  1.0 -0.141205926
F  F7  1  0.94310000  0.48130000  0.27640000  1.0 -0.1312247855
F  F8  1  0.02970000  0.38190000  0.00780000  1.0 -0.141205926
F  F9  1  0.41550000  0.48530000  0.73620000  1.0 -0.141205926
F  F10  1  0.70490000  0.66666667  0.22360000  1.0 -0.1312247855
F  F11  1  0.87410000  0.02190000  0.49220000  1.0 -0.141205926
F  F12  1  0.24910000  0.67930000  0.76380000  1.0 -0.141205926
F  F13  1  0.56740000  0.55840000  0.00900000  1.0 -0.1312247855
F  F14  1  0.04940000  0.55840000  0.49100000  1.0 -0.1312247855
F  F15  1  0.94330000  0.50730000  0.06400000  1.0 -0.0784570592
F  F16  1  0.94330000  0.87930000  0.43600000  1.0 -0.0784570592
F  F17  1  0.37300000  0.57000000  0.69700000  1.0 0.1735546373
F  F18  1  0.37300000  0.67600000  0.80300000  1.0 0.1735546373
F  F19  1  0.05690000  0.51870000  0.72360000  1.0 -0.1312247855
F  F20  1  0.97030000  0.61810000  0.99220000  1.0 -0.141205926
F  F21  1  0.58450000  0.51470000  0.26380000  1.0 -0.141205926
F  F22  1  0.29510000  0.33333333  0.77640000  1.0 -0.1312247855
F  F23  1  0.12590000  0.97810000  0.50780000  1.0 -0.141205926
F  F24  1  0.75090000  0.32070000  0.23620000  1.0 -0.141205926
F  F25  1  0.29510000  0.51870000  0.96180000  1.0 -0.1312247855
F  F26  1  0.12590000  0.61810000  0.14780000  1.0 -0.141205926
F  F27  1  0.75090000  0.51470000  0.43020000  1.0 -0.141205926
F  F28  1  0.05690000  0.33333333  0.53820000  1.0 -0.1312247855
F  F29  1  0.97030000  0.97810000  0.35220000  1.0 -0.141205926
F  F30  1  0.58450000  0.32070000  0.06980000  1.0 -0.141205926
F  F31  1  0.95060000  0.44160000  0.50900000  1.0 -0.1312247855
F  F32  1  0.43260000  0.44160000  0.99100000  1.0 -0.1312247855
F  F33  1  0.05670000  0.49270000  0.93600000  1.0 -0.0784570592
F  F34  1  0.05670000  0.12070000  0.56400000  1.0 -0.0784570592
F  F35  1  0.62700000  0.43000000  0.30300000  1.0 0.1735546373
F  F36  1  0.62700000  0.32400000  0.19700000  1.0 0.1753052207
