# DDEC6 charges by PACMAN v1.1 (https://github.com/mtap-research/PACMAN-charge/)
data_YIYPEE_FSR_pacman
_symmetry_space_group_name_H-M   'P 1'
_cell_length_a   19.44730000
_cell_length_b   19.44730000
_cell_length_c   24.54730000
_cell_angle_alpha   85.98390000
_cell_angle_beta   94.01610000
_cell_angle_gamma   143.19100000
_symmetry_Int_Tables_number   1
_chemical_formula_structural   K5Na2Zr4Si2H6W20(C4O49)2
_chemical_formula_sum   'K10 Na4 Zr8 Si4 H12 W40 C16 O196'
_cell_volume   5547.16596948
_cell_formula_units_Z   2
loop_
 _symmetry_equiv_pos_site_id
 _symmetry_equiv_pos_as_xyz
  1  'x, y, z'
loop_
 _atom_site_type_symbol
 _atom_site_label
 _atom_site_symmetry_multiplicity
 _atom_site_fract_x
 _atom_site_fract_y
 _atom_site_fract_z
 _atom_site_occupancy
 _atom_site_charge
K  K1  1  0.85093000  0.96047000  0.05260000  1.0 0.9426625974
K  K2  1  0.52507000  0.89653000  0.05430000  1.0 0.9234438844
K  K3  1  0.96047000  0.85093000  0.44740000  1.0 0.9426625974
K  K4  1  0.89653000  0.52507000  0.44570000  1.0 0.9234438844
K  K5  1  0.14907000  0.03953000  0.94740000  1.0 0.9426625974
K  K6  1  0.47493000  0.10347000  0.94570000  1.0 0.9234438844
K  K7  1  0.03953000  0.14907000  0.55260000  1.0 0.9426625974
K  K8  1  0.10347000  0.47493000  0.55430000  1.0 0.9234438844
K  K9  1  0.50000000  0.50000000  0.00000000  1.0 0.960254968
K  K10  1  0.50000000  0.50000000  0.50000000  1.0 0.960254968
Na  Na1  1  0.66380000  0.86740000  0.28520000  1.0 0.8555729098
Na  Na2  1  0.86740000  0.66380000  0.21480000  1.0 0.8515774913
Na  Na3  1  0.33620000  0.13260000  0.71480000  1.0 0.8555729098
Na  Na4  1  0.13260000  0.33620000  0.78520000  1.0 0.8555729098
Zr  Zr1  1  0.00252000  0.41676000  0.98495000  1.0 2.5013290949
Zr  Zr2  1  0.19993000  0.63945000  0.08881000  1.0 2.4293053456
Zr  Zr3  1  0.41676000  0.00252000  0.51505000  1.0 2.5013290949
Zr  Zr4  1  0.63945000  0.19993000  0.41119000  1.0 2.4293053456
Zr  Zr5  1  0.99748000  0.58324000  0.01505000  1.0 2.5013290949
Zr  Zr6  1  0.80007000  0.36055000  0.91119000  1.0 2.4293053456
Zr  Zr7  1  0.58324000  0.99748000  0.48495000  1.0 2.5013290949
Zr  Zr8  1  0.36055000  0.80007000  0.58881000  1.0 2.4293053456
Si  Si1  1  0.18431000  0.43129000  0.05647000  1.0 1.6991399534
Si  Si2  1  0.43129000  0.18431000  0.44353000  1.0 1.6991399534
Si  Si3  1  0.81569000  0.56871000  0.94353000  1.0 1.6991399534
Si  Si4  1  0.56871000  0.81569000  0.55647000  1.0 1.6991399534
H  H1  1  0.78000000  0.14180000  0.84270000  1.0 0.1462427869
H  H2  1  0.90300000  0.25880000  0.86310000  1.0 0.1434627816
H  H3  1  0.78170000  0.14350000  0.93770000  1.0 0.1229665846
H  H4  1  0.14180000  0.78000000  0.65730000  1.0 0.1462427869
H  H5  1  0.25880000  0.90300000  0.63690000  1.0 0.1434627816
H  H6  1  0.14350000  0.78170000  0.56230000  1.0 0.1229665846
H  H7  1  0.22000000  0.85820000  0.15730000  1.0 0.1462427869
H  H8  1  0.09700000  0.74120000  0.13690000  1.0 0.1434627816
H  H9  1  0.21830000  0.85650000  0.06230000  1.0 0.1229665846
H  H10  1  0.85820000  0.22000000  0.34270000  1.0 0.1462427869
H  H11  1  0.74120000  0.09700000  0.36310000  1.0 0.1434627816
H  H12  1  0.85650000  0.21830000  0.43770000  1.0 0.1229665846
W  W1  1  0.37827000  0.46711000  0.13213000  1.0 2.3199880071
W  W2  1  0.48303000  0.67099000  0.04045000  1.0 2.3879687098
W  W3  1  0.89176000  0.18636000  0.08369000  1.0 2.4293053456
W  W4  1  0.17820000  0.24862000  0.02535000  1.0 2.3572648473
W  W5  1  0.00488000  0.22668000  0.95489000  1.0 2.3879687098
W  W6  1  0.07324000  0.38768000  0.17967000  1.0 2.3717525907
W  W7  1  0.28586000  0.64026000  0.96371000  1.0 2.4206271278
W  W8  1  0.06584000  0.21152000  0.15686000  1.0 2.3199880071
W  W9  1  0.38128000  0.63868000  0.15900000  1.0 2.3805218644
W  W10  1  0.28625000  0.45405000  0.93429000  1.0 2.3879687098
W  W11  1  0.46711000  0.37827000  0.36787000  1.0 2.3086050458
W  W12  1  0.67099000  0.48303000  0.45955000  1.0 2.3879687098
W  W13  1  0.18636000  0.89176000  0.41631000  1.0 2.4293053456
W  W14  1  0.24862000  0.17820000  0.47465000  1.0 2.3472164579
W  W15  1  0.22668000  0.00488000  0.54511000  1.0 2.3879687098
W  W16  1  0.38768000  0.07324000  0.32033000  1.0 2.3717525907
W  W17  1  0.64026000  0.28586000  0.53629000  1.0 2.4145887799
W  W18  1  0.21152000  0.06584000  0.34314000  1.0 2.3086050458
W  W19  1  0.63868000  0.38128000  0.34100000  1.0 2.3717525907
W  W20  1  0.45405000  0.28625000  0.56571000  1.0 2.3805218644
W  W21  1  0.62173000  0.53289000  0.86787000  1.0 2.3199880071
W  W22  1  0.51697000  0.32901000  0.95955000  1.0 2.3805218644
W  W23  1  0.10824000  0.81364000  0.91631000  1.0 2.4293053456
W  W24  1  0.82180000  0.75138000  0.97465000  1.0 2.3572648473
W  W25  1  0.99512000  0.77332000  0.04511000  1.0 2.3879687098
W  W26  1  0.92676000  0.61232000  0.82033000  1.0 2.3717525907
W  W27  1  0.71414000  0.35974000  0.03629000  1.0 2.4206271278
W  W28  1  0.93416000  0.78848000  0.84314000  1.0 2.3086050458
W  W29  1  0.61872000  0.36132000  0.84100000  1.0 2.3805218644
W  W30  1  0.71375000  0.54595000  0.06571000  1.0 2.3805218644
W  W31  1  0.53289000  0.62173000  0.63213000  1.0 2.3199880071
W  W32  1  0.32901000  0.51697000  0.54045000  1.0 2.3879687098
W  W33  1  0.81364000  0.10824000  0.58369000  1.0 2.4293053456
W  W34  1  0.75138000  0.82180000  0.52535000  1.0 2.3572648473
W  W35  1  0.77332000  0.99512000  0.45489000  1.0 2.3879687098
W  W36  1  0.61232000  0.92676000  0.67967000  1.0 2.3805218644
W  W37  1  0.35974000  0.71414000  0.46371000  1.0 2.4206271278
W  W38  1  0.78848000  0.93416000  0.65686000  1.0 2.3199880071
W  W39  1  0.36132000  0.61872000  0.65900000  1.0 2.3805218644
W  W40  1  0.54595000  0.71375000  0.43429000  1.0 2.3879687098
C  C1  1  0.66200000  0.11820000  0.90190000  1.0 0.5669133969
C  C2  1  0.82470000  0.21330000  0.85860000  1.0 -0.3784305669
C  C3  1  0.82690000  0.27510000  0.81740000  1.0 0.6967939593
C  C4  1  0.78060000  0.18560000  0.91450000  1.0 0.0333991272
C  C5  1  0.11820000  0.66200000  0.59810000  1.0 0.5669133969
C  C6  1  0.21330000  0.82470000  0.64140000  1.0 -0.3784305669
C  C7  1  0.27510000  0.82690000  0.68260000  1.0 0.6967939593
C  C8  1  0.18560000  0.78060000  0.58550000  1.0 0.0333991272
C  C9  1  0.33800000  0.88180000  0.09810000  1.0 0.5669133969
C  C10  1  0.17530000  0.78670000  0.14140000  1.0 -0.3784305669
C  C11  1  0.17310000  0.72490000  0.18260000  1.0 0.6967939593
C  C12  1  0.21940000  0.81440000  0.08550000  1.0 0.0333991272
C  C13  1  0.88180000  0.33800000  0.40190000  1.0 0.5669133969
C  C14  1  0.78670000  0.17530000  0.35860000  1.0 -0.3784305669
C  C15  1  0.72490000  0.17310000  0.31740000  1.0 0.6967939593
C  C16  1  0.81440000  0.21940000  0.41450000  1.0 0.0333991272
O  O1  1  0.49660000  0.59420000  0.08450000  1.0 -0.9199620501
O  O2  1  0.41520000  0.56440000  0.98500000  1.0 -0.9476953589
O  O3  1  0.50600000  0.73500000  0.10790000  1.0 -0.9199620501
O  O4  1  0.27040000  0.34560000  0.96440000  1.0 -0.9199620501
O  O5  1  0.41410000  0.69410000  0.00600000  1.0 -0.9199620501
O  O6  1  0.04820000  0.16420000  0.98040000  1.0 -0.8768360061
O  O7  1  0.31090000  0.37230000  0.07000000  1.0 -0.9309149973
O  O8  1  0.09240000  0.19240000  0.08710000  1.0 -0.9083227289
O  O9  1  0.00840000  0.32280000  0.95230000  1.0 -0.9083227289
O  O10  1  0.92580000  0.16260000  0.02270000  1.0 -0.9199620501
O  O11  1  0.08830000  0.33770000  0.10270000  1.0 -1.0301913497
O  O12  1  0.30960000  0.51960000  0.08620000  1.0 -1.0240337345
O  O13  1  0.12920000  0.31960000  0.90630000  1.0 -0.9083227289
O  O14  1  0.14220000  0.54860000  0.93390000  1.0 -0.9199620501
O  O15  1  0.89300000  0.11760000  0.91240000  1.0 -0.6267444782
O  O16  1  0.32520000  0.67220000  0.12160000  1.0 -0.9588321142
O  O17  1  0.36800000  0.74520000  0.91330000  1.0 -0.6056545071
O  O18  1  0.16910000  0.49650000  0.02860000  1.0 -1.0301913497
O  O19  1  0.41730000  0.56790000  0.17800000  1.0 -0.8635711961
O  O20  1  0.05350000  0.52550000  0.04200000  1.0 -1.1666294627
O  O21  1  0.23850000  0.50450000  0.18990000  1.0 -0.8768360061
O  O22  1  0.91320000  0.28520000  0.04400000  1.0 -0.9199620501
O  O23  1  0.91860000  0.25100000  0.15190000  1.0 -0.8907134973
O  O24  1  0.28790000  0.70690000  0.01440000  1.0 -0.9476953589
O  O25  1  0.23080000  0.34340000  0.16110000  1.0 -0.8768360061
O  O26  1  0.84650000  0.29250000  0.93690000  1.0 -0.79344806
O  O27  1  0.17860000  0.15980000  0.02480000  1.0 -0.7295388721
O  O28  1  0.17170000  0.36570000  0.01020000  1.0 -1.0301913497
O  O29  1  0.27280000  0.54000000  0.93250000  1.0 -0.8907134973
O  O30  1  0.10100000  0.48540000  0.13580000  1.0 -0.8768360061
O  O31  1  0.74500000  0.06160000  0.08590000  1.0 -0.7184367215
O  O32  1  0.45270000  0.72610000  0.21400000  1.0 -0.6567834906
O  O33  1  0.62080000  0.79000000  0.01810000  1.0 -0.7184367215
O  O34  1  0.92050000  0.12070000  0.12810000  1.0 -0.9044707112
O  O35  1  0.03380000  0.11400000  0.20000000  1.0 -0.6760393374
O  O36  1  0.82680000  0.33620000  0.83400000  1.0 -0.6487226512
O  O37  1  0.44780000  0.45400000  0.16530000  1.0 -0.6022949807
O  O38  1  0.06300000  0.27860000  0.20390000  1.0 -0.8431383364
O  O39  1  0.04300000  0.39600000  0.24000000  1.0 -0.5644657903
O  O40  1  0.35450000  0.49570000  0.87440000  1.0 -0.6487226512
O  O41  1  0.64570000  0.16890000  0.90180000  1.0 -0.6412072234
O  O42  1  0.58050000  0.00910000  0.90220000  1.0 -0.4317697776
O  O43  1  0.84530000  0.28270000  0.76680000  1.0 -0.4363568865
O  O44  1  0.52870000  0.86130000  0.32250000  1.0 0.067848708
O  O45  1  0.58010000  0.66750000  0.26490000  1.0 0.1736417793
O  O46  1  0.86960000  0.94300000  0.28230000  1.0 0.1916192152
O  O47  1  0.71800000  0.88540000  0.16910000  1.0 0.0437905591
O  O48  1  0.97540000  0.94440000  0.10470000  1.0 0.0880532161
O  O49  1  0.64330000  0.11390000  0.04160000  1.0 0.1296486192
O  O50  1  0.59420000  0.49660000  0.41550000  1.0 -0.9199620501
O  O51  1  0.56440000  0.41520000  0.51500000  1.0 -0.9476953589
O  O52  1  0.73500000  0.50600000  0.39210000  1.0 -0.9199620501
O  O53  1  0.34560000  0.27040000  0.53560000  1.0 -0.9199620501
O  O54  1  0.69410000  0.41410000  0.49400000  1.0 -0.9199620501
O  O55  1  0.16420000  0.04820000  0.51960000  1.0 -0.8768360061
O  O56  1  0.37230000  0.31090000  0.43000000  1.0 -0.9309149973
O  O57  1  0.19240000  0.09240000  0.41290000  1.0 -0.9083227289
O  O58  1  0.32280000  0.00840000  0.54770000  1.0 -0.9083227289
O  O59  1  0.16260000  0.92580000  0.47730000  1.0 -0.9083227289
O  O60  1  0.33770000  0.08830000  0.39730000  1.0 -1.0301913497
O  O61  1  0.51960000  0.30960000  0.41380000  1.0 -1.0240337345
O  O62  1  0.31960000  0.12920000  0.59370000  1.0 -0.9083227289
O  O63  1  0.54860000  0.14220000  0.56610000  1.0 -0.9199620501
O  O64  1  0.11760000  0.89300000  0.58760000  1.0 -0.6267444782
O  O65  1  0.67220000  0.32520000  0.37840000  1.0 -0.9588321142
O  O66  1  0.74520000  0.36800000  0.58670000  1.0 -0.6022949807
O  O67  1  0.49650000  0.16910000  0.47140000  1.0 -1.0301913497
O  O68  1  0.56790000  0.41730000  0.32200000  1.0 -0.8726191454
O  O69  1  0.52550000  0.05350000  0.45800000  1.0 -1.1666294627
O  O70  1  0.50450000  0.23850000  0.31010000  1.0 -0.8768360061
O  O71  1  0.28520000  0.91320000  0.45600000  1.0 -0.9199620501
O  O72  1  0.25100000  0.91860000  0.34810000  1.0 -0.8907134973
O  O73  1  0.70690000  0.28790000  0.48560000  1.0 -0.9476953589
O  O74  1  0.34340000  0.23080000  0.33890000  1.0 -0.8726191454
O  O75  1  0.29250000  0.84650000  0.56310000  1.0 -0.79344806
O  O76  1  0.15980000  0.17860000  0.47520000  1.0 -0.7295388721
O  O77  1  0.36570000  0.17170000  0.48980000  1.0 -1.0301913497
O  O78  1  0.54000000  0.27280000  0.56750000  1.0 -0.8907134973
O  O79  1  0.48540000  0.10100000  0.36420000  1.0 -0.8768360061
O  O80  1  0.06160000  0.74500000  0.41410000  1.0 -0.7184367215
O  O81  1  0.72610000  0.45270000  0.28600000  1.0 -0.6487226512
O  O82  1  0.79000000  0.62080000  0.48190000  1.0 -0.7184367215
O  O83  1  0.12070000  0.92050000  0.37190000  1.0 -0.9083227289
O  O84  1  0.11400000  0.03380000  0.30000000  1.0 -0.6760393374
O  O85  1  0.33620000  0.82680000  0.66600000  1.0 -0.6487226512
O  O86  1  0.45400000  0.44780000  0.33470000  1.0 -0.6022949807
O  O87  1  0.27860000  0.06300000  0.29610000  1.0 -0.8431383364
O  O88  1  0.39600000  0.04300000  0.26000000  1.0 -0.56637749
O  O89  1  0.49570000  0.35450000  0.62560000  1.0 -0.6487226512
O  O90  1  0.16890000  0.64570000  0.59820000  1.0 -0.6412072234
O  O91  1  0.00910000  0.58050000  0.59780000  1.0 -0.4317697776
O  O92  1  0.28270000  0.84530000  0.73320000  1.0 -0.4363568865
O  O93  1  0.86130000  0.52870000  0.17750000  1.0 0.0784947283
O  O94  1  0.66750000  0.58010000  0.23510000  1.0 0.1760572053
O  O95  1  0.94300000  0.86960000  0.21770000  1.0 0.1916192152
O  O96  1  0.88540000  0.71800000  0.33090000  1.0 0.0489370142
O  O97  1  0.94440000  0.97540000  0.39530000  1.0 0.0880532161
O  O98  1  0.11390000  0.64330000  0.45840000  1.0 0.1296486192
O  O99  1  0.50340000  0.40580000  0.91550000  1.0 -0.9199620501
O  O100  1  0.58480000  0.43560000  0.01500000  1.0 -0.9476953589
O  O101  1  0.49400000  0.26500000  0.89210000  1.0 -0.9199620501
O  O102  1  0.72960000  0.65440000  0.03560000  1.0 -0.9199620501
O  O103  1  0.58590000  0.30590000  0.99400000  1.0 -0.9199620501
O  O104  1  0.95180000  0.83580000  0.01960000  1.0 -0.8726191454
O  O105  1  0.68910000  0.62770000  0.93000000  1.0 -0.9309149973
O  O106  1  0.90760000  0.80760000  0.91290000  1.0 -0.9083227289
O  O107  1  0.99160000  0.67720000  0.04770000  1.0 -0.9083227289
O  O108  1  0.07420000  0.83740000  0.97730000  1.0 -0.9083227289
O  O109  1  0.91170000  0.66230000  0.89730000  1.0 -1.0301913497
O  O110  1  0.69040000  0.48040000  0.91380000  1.0 -1.0240337345
O  O111  1  0.87080000  0.68040000  0.09370000  1.0 -0.9044707112
O  O112  1  0.85780000  0.45140000  0.06610000  1.0 -0.9199620501
O  O113  1  0.10700000  0.88240000  0.08760000  1.0 -0.6267444782
O  O114  1  0.67480000  0.32780000  0.87840000  1.0 -0.9588321142
O  O115  1  0.63200000  0.25480000  0.08670000  1.0 -0.6056545071
O  O116  1  0.83090000  0.50350000  0.97140000  1.0 -1.0301913497
O  O117  1  0.58270000  0.43210000  0.82200000  1.0 -0.8635711961
O  O118  1  0.94650000  0.47450000  0.95800000  1.0 -1.1666294627
O  O119  1  0.76150000  0.49550000  0.81010000  1.0 -0.8768360061
O  O120  1  0.08680000  0.71480000  0.95600000  1.0 -0.9199620501
O  O121  1  0.08140000  0.74900000  0.84810000  1.0 -0.8907134973
O  O122  1  0.71210000  0.29310000  0.98560000  1.0 -0.9476953589
O  O123  1  0.76920000  0.65660000  0.83890000  1.0 -0.8726191454
O  O124  1  0.15350000  0.70750000  0.06310000  1.0 -0.79344806
O  O125  1  0.82140000  0.84020000  0.97520000  1.0 -0.7295388721
O  O126  1  0.82830000  0.63430000  0.98980000  1.0 -1.0301913497
O  O127  1  0.72720000  0.46000000  0.06750000  1.0 -0.8907134973
O  O128  1  0.89900000  0.51460000  0.86420000  1.0 -0.8768360061
O  O129  1  0.25500000  0.93840000  0.91410000  1.0 -0.7184367215
O  O130  1  0.54730000  0.27390000  0.78600000  1.0 -0.6567834906
O  O131  1  0.37920000  0.21000000  0.98190000  1.0 -0.7135937505
O  O132  1  0.07950000  0.87930000  0.87190000  1.0 -0.9044707112
O  O133  1  0.96620000  0.88600000  0.80000000  1.0 -0.672687798
O  O134  1  0.17320000  0.66380000  0.16600000  1.0 -0.6412072234
O  O135  1  0.55220000  0.54600000  0.83470000  1.0 -0.6022949807
O  O136  1  0.93700000  0.72140000  0.79610000  1.0 -0.8431383364
O  O137  1  0.95700000  0.60400000  0.76000000  1.0 -0.56637749
O  O138  1  0.64550000  0.50430000  0.12560000  1.0 -0.6487226512
O  O139  1  0.35430000  0.83110000  0.09820000  1.0 -0.6412072234
O  O140  1  0.41950000  0.99090000  0.09780000  1.0 -0.4317697776
O  O141  1  0.15470000  0.71730000  0.23320000  1.0 -0.4317697776
O  O142  1  0.47130000  0.13870000  0.67750000  1.0 0.067848708
O  O143  1  0.41990000  0.33250000  0.73510000  1.0 0.1916192152
O  O144  1  0.13040000  0.05700000  0.71770000  1.0 0.1916192152
O  O145  1  0.28200000  0.11460000  0.83090000  1.0 0.0489370142
O  O146  1  0.02460000  0.05560000  0.89530000  1.0 0.0880532161
O  O147  1  0.35670000  0.88610000  0.95840000  1.0 0.1296486192
O  O148  1  0.40580000  0.50340000  0.58450000  1.0 -0.9199620501
O  O149  1  0.43560000  0.58480000  0.48500000  1.0 -0.9476953589
O  O150  1  0.26500000  0.49400000  0.60790000  1.0 -0.9199620501
O  O151  1  0.65440000  0.72960000  0.46440000  1.0 -0.9199620501
O  O152  1  0.30590000  0.58590000  0.50600000  1.0 -0.9199620501
O  O153  1  0.83580000  0.95180000  0.48040000  1.0 -0.8768360061
O  O154  1  0.62770000  0.68910000  0.57000000  1.0 -0.9309149973
O  O155  1  0.80760000  0.90760000  0.58710000  1.0 -0.9083227289
O  O156  1  0.67720000  0.99160000  0.45230000  1.0 -0.9083227289
O  O157  1  0.83740000  0.07420000  0.52270000  1.0 -0.9199620501
O  O158  1  0.66230000  0.91170000  0.60270000  1.0 -1.0301913497
O  O159  1  0.48040000  0.69040000  0.58620000  1.0 -1.0301913497
O  O160  1  0.68040000  0.87080000  0.40630000  1.0 -0.9083227289
O  O161  1  0.45140000  0.85780000  0.43390000  1.0 -0.9199620501
O  O162  1  0.88240000  0.10700000  0.41240000  1.0 -0.624783545
O  O163  1  0.32780000  0.67480000  0.62160000  1.0 -0.9588321142
O  O164  1  0.25480000  0.63200000  0.41330000  1.0 -0.6022949807
O  O165  1  0.50350000  0.83090000  0.52860000  1.0 -1.0301913497
O  O166  1  0.43210000  0.58270000  0.67800000  1.0 -0.8635711961
O  O167  1  0.47450000  0.94650000  0.54200000  1.0 -1.1666294627
O  O168  1  0.49550000  0.76150000  0.68990000  1.0 -0.8768360061
O  O169  1  0.71480000  0.08680000  0.54400000  1.0 -0.9199620501
O  O170  1  0.74900000  0.08140000  0.65190000  1.0 -0.8907134973
O  O171  1  0.29310000  0.71210000  0.51440000  1.0 -0.9476953589
O  O172  1  0.65660000  0.76920000  0.66110000  1.0 -0.8726191454
O  O173  1  0.70750000  0.15350000  0.43690000  1.0 -0.79344806
O  O174  1  0.84020000  0.82140000  0.52480000  1.0 -0.7295388721
O  O175  1  0.63430000  0.82830000  0.51020000  1.0 -1.0301913497
O  O176  1  0.46000000  0.72720000  0.43250000  1.0 -0.8907134973
O  O177  1  0.51460000  0.89900000  0.63580000  1.0 -0.8768360061
O  O178  1  0.93840000  0.25500000  0.58590000  1.0 -0.7184367215
O  O179  1  0.27390000  0.54730000  0.71400000  1.0 -0.6487226512
O  O180  1  0.21000000  0.37920000  0.51810000  1.0 -0.7184367215
O  O181  1  0.87930000  0.07950000  0.62810000  1.0 -0.9083227289
O  O182  1  0.88600000  0.96620000  0.70000000  1.0 -0.672687798
O  O183  1  0.66380000  0.17320000  0.33400000  1.0 -0.6487226512
O  O184  1  0.54600000  0.55220000  0.66530000  1.0 -0.6022949807
O  O185  1  0.72140000  0.93700000  0.70390000  1.0 -0.8431383364
O  O186  1  0.60400000  0.95700000  0.74000000  1.0 -0.5644657903
O  O187  1  0.50430000  0.64550000  0.37440000  1.0 -0.6487226512
O  O188  1  0.83110000  0.35430000  0.40180000  1.0 -0.6412072234
O  O189  1  0.99090000  0.41950000  0.40220000  1.0 -0.4317697776
O  O190  1  0.71730000  0.15470000  0.26680000  1.0 -0.4317697776
O  O191  1  0.13870000  0.47130000  0.82250000  1.0 0.067848708
O  O192  1  0.33250000  0.41990000  0.76490000  1.0 0.1736417793
O  O193  1  0.05700000  0.13040000  0.78230000  1.0 0.1916192152
O  O194  1  0.11460000  0.28200000  0.66910000  1.0 0.0437905591
O  O195  1  0.05560000  0.02460000  0.60470000  1.0 0.0880532161
O  O196  1  0.88610000  0.35670000  0.54160000  1.0 0.1296486192
