# DDEC6 charges by PACMAN v1.1 (https://github.com/mtap-research/PACMAN-charge/)
data_YIZGEV_ASR_pacman
_symmetry_space_group_name_H-M   'P 1'
_cell_length_a   18.71190000
_cell_length_b   18.71190000
_cell_length_c   9.39907000
_cell_angle_alpha   90.00000000
_cell_angle_beta   90.00000000
_cell_angle_gamma   90.00000000
_symmetry_Int_Tables_number   1
_chemical_formula_structural   AlPO4
_chemical_formula_sum   'Al24 P24 O96'
_cell_volume   3290.94526940
_cell_formula_units_Z   24
loop_
 _symmetry_equiv_pos_site_id
 _symmetry_equiv_pos_as_xyz
  1  'x, y, z'
loop_
 _atom_site_type_symbol
 _atom_site_label
 _atom_site_symmetry_multiplicity
 _atom_site_fract_x
 _atom_site_fract_y
 _atom_site_fract_z
 _atom_site_occupancy
 _atom_site_charge
Al  Al1  1  0.29488000  0.91460000  0.33858000  1.0 1.7433656119
Al  Al2  1  0.41460000  0.20512000  0.33858000  1.0 1.7433656119
Al  Al3  1  0.70512000  0.08540000  0.33858000  1.0 1.7433656119
Al  Al4  1  0.58540000  0.79488000  0.33858000  1.0 1.7433656119
Al  Al5  1  0.20512000  0.58540000  0.66142000  1.0 1.7433656119
Al  Al6  1  0.08540000  0.29488000  0.66142000  1.0 1.7433656119
Al  Al7  1  0.79488000  0.41460000  0.66142000  1.0 1.7433656119
Al  Al8  1  0.91460000  0.70512000  0.66142000  1.0 1.7433656119
Al  Al9  1  0.18375000  0.08449000  0.59170000  1.0 1.7507481389
Al  Al10  1  0.58449000  0.31625000  0.59170000  1.0 1.7507481389
Al  Al11  1  0.81625000  0.91551000  0.59170000  1.0 1.7507481389
Al  Al12  1  0.41551000  0.68375000  0.59170000  1.0 1.7507481389
Al  Al13  1  0.31625000  0.41551000  0.40830000  1.0 1.7507481389
Al  Al14  1  0.91551000  0.18375000  0.40830000  1.0 1.7507481389
Al  Al15  1  0.68375000  0.58449000  0.40830000  1.0 1.7507481389
Al  Al16  1  0.08449000  0.81625000  0.40830000  1.0 1.7507481389
Al  Al17  1  0.19186000  0.18016000  0.15934000  1.0 1.722893279
Al  Al18  1  0.68016000  0.30814000  0.15934000  1.0 1.722893279
Al  Al19  1  0.80814000  0.81984000  0.15934000  1.0 1.722893279
Al  Al20  1  0.31984000  0.69186000  0.15934000  1.0 1.722893279
Al  Al21  1  0.30814000  0.31984000  0.84066000  1.0 1.7264854722
Al  Al22  1  0.81984000  0.19186000  0.84066000  1.0 1.7264854722
Al  Al23  1  0.69186000  0.68016000  0.84066000  1.0 1.7264854722
Al  Al24  1  0.18016000  0.80814000  0.84066000  1.0 1.7264854722
P  P1  1  0.18493000  0.91733000  0.59263000  1.0 1.4660233073
P  P2  1  0.41733000  0.31507000  0.59263000  1.0 1.4660233073
P  P3  1  0.81507000  0.08267000  0.59263000  1.0 1.4660233073
P  P4  1  0.58267000  0.68493000  0.59263000  1.0 1.4605179759
P  P5  1  0.31507000  0.58267000  0.40737000  1.0 1.4605179759
P  P6  1  0.08267000  0.18493000  0.40737000  1.0 1.4660233073
P  P7  1  0.68493000  0.41733000  0.40737000  1.0 1.4605179759
P  P8  1  0.91733000  0.81507000  0.40737000  1.0 1.4605179759
P  P9  1  0.30072000  0.08241000  0.34042000  1.0 1.4605179759
P  P10  1  0.58241000  0.19928000  0.34042000  1.0 1.4605179759
P  P11  1  0.69928000  0.91759000  0.34042000  1.0 1.4527322265
P  P12  1  0.41759000  0.80072000  0.34042000  1.0 1.4605179759
P  P13  1  0.19928000  0.41759000  0.65958000  1.0 1.4605179759
P  P14  1  0.91759000  0.30072000  0.65958000  1.0 1.4527322265
P  P15  1  0.80072000  0.58241000  0.65958000  1.0 1.4527322265
P  P16  1  0.08241000  0.69928000  0.65958000  1.0 1.4605179759
P  P17  1  0.31170000  0.30259000  0.16585000  1.0 1.4660233073
P  P18  1  0.80259000  0.18830000  0.16585000  1.0 1.4605179759
P  P19  1  0.68830000  0.69741000  0.16585000  1.0 1.4605179759
P  P20  1  0.19741000  0.81170000  0.16585000  1.0 1.4605179759
P  P21  1  0.18830000  0.19741000  0.83415000  1.0 1.4660233073
P  P22  1  0.69741000  0.31170000  0.83415000  1.0 1.4605179759
P  P23  1  0.81170000  0.80259000  0.83415000  1.0 1.4605179759
P  P24  1  0.30259000  0.68830000  0.83415000  1.0 1.4605179759
O  O1  1  0.25071000  0.90868000  0.50739000  1.0 -0.8386243172
O  O2  1  0.40868000  0.24929000  0.50739000  1.0 -0.8386243172
O  O3  1  0.74929000  0.09132000  0.50739000  1.0 -0.8386243172
O  O4  1  0.59132000  0.75071000  0.50739000  1.0 -0.8386243172
O  O5  1  0.24929000  0.59132000  0.49261000  1.0 -0.8386243172
O  O6  1  0.09132000  0.25071000  0.49261000  1.0 -0.8386243172
O  O7  1  0.75071000  0.40868000  0.49261000  1.0 -0.8386243172
O  O8  1  0.90868000  0.74929000  0.49261000  1.0 -0.8386243172
O  O9  1  0.17037000  0.99802000  0.62086000  1.0 -0.7555106468
O  O10  1  0.49802000  0.32963000  0.62086000  1.0 -0.7545314816
O  O11  1  0.82963000  0.00198000  0.62086000  1.0 -0.7545314816
O  O12  1  0.50198000  0.67037000  0.62086000  1.0 -0.7545314816
O  O13  1  0.32963000  0.50198000  0.37914000  1.0 -0.7555106468
O  O14  1  0.00198000  0.17037000  0.37914000  1.0 -0.7555106468
O  O15  1  0.67037000  0.49802000  0.37914000  1.0 -0.7555106468
O  O16  1  0.99802000  0.82963000  0.37914000  1.0 -0.7555106468
O  O17  1  0.11951000  0.88561000  0.52128000  1.0 -0.8386243172
O  O18  1  0.38561000  0.38049000  0.52128000  1.0 -0.8386243172
O  O19  1  0.88049000  0.11439000  0.52128000  1.0 -0.8386243172
O  O20  1  0.61439000  0.61951000  0.52128000  1.0 -0.8386243172
O  O21  1  0.38049000  0.61439000  0.47872000  1.0 -0.8386243172
O  O22  1  0.11439000  0.11951000  0.47872000  1.0 -0.8386243172
O  O23  1  0.61951000  0.38561000  0.47872000  1.0 -0.8386243172
O  O24  1  0.88561000  0.88049000  0.47872000  1.0 -0.8386243172
O  O25  1  0.19221000  0.88462000  0.74275000  1.0 -0.7784734495
O  O26  1  0.38462000  0.30779000  0.74275000  1.0 -0.7784734495
O  O27  1  0.80779000  0.11538000  0.74275000  1.0 -0.7784734495
O  O28  1  0.61538000  0.69221000  0.74275000  1.0 -0.7784734495
O  O29  1  0.30779000  0.61538000  0.25725000  1.0 -0.7784734495
O  O30  1  0.11538000  0.19221000  0.25725000  1.0 -0.7784734495
O  O31  1  0.69221000  0.38462000  0.25725000  1.0 -0.7784734495
O  O32  1  0.88462000  0.80779000  0.25725000  1.0 -0.7784734495
O  O33  1  0.31204000  0.00242000  0.30635000  1.0 -0.7784734495
O  O34  1  0.50242000  0.18796000  0.30635000  1.0 -0.7784734495
O  O35  1  0.68796000  0.99758000  0.30635000  1.0 -0.7784734495
O  O36  1  0.49758000  0.81204000  0.30635000  1.0 -0.7784734495
O  O37  1  0.18796000  0.49758000  0.69365000  1.0 -0.7689080027
O  O38  1  0.99758000  0.31204000  0.69365000  1.0 -0.7689080027
O  O39  1  0.81204000  0.50242000  0.69365000  1.0 -0.7689080027
O  O40  1  0.00242000  0.68796000  0.69365000  1.0 -0.7689080027
O  O41  1  0.37645000  0.25651000  0.20640000  1.0 -0.8297549523
O  O42  1  0.75651000  0.12355000  0.20640000  1.0 -0.8297549523
O  O43  1  0.62355000  0.74349000  0.20640000  1.0 -0.8297549523
O  O44  1  0.24349000  0.87645000  0.20640000  1.0 -0.8297549523
O  O45  1  0.12355000  0.24349000  0.79360000  1.0 -0.8297549523
O  O46  1  0.74349000  0.37645000  0.79360000  1.0 -0.8297549523
O  O47  1  0.87645000  0.75651000  0.79360000  1.0 -0.8297549523
O  O48  1  0.25651000  0.62355000  0.79360000  1.0 -0.8297549523
O  O49  1  0.36837000  0.12003000  0.34592000  1.0 -0.7689080027
O  O50  1  0.62003000  0.13163000  0.34592000  1.0 -0.7689080027
O  O51  1  0.63163000  0.87997000  0.34592000  1.0 -0.7689080027
O  O52  1  0.37997000  0.86837000  0.34592000  1.0 -0.7689080027
O  O53  1  0.13163000  0.37997000  0.65408000  1.0 -0.7689080027
O  O54  1  0.87997000  0.36837000  0.65408000  1.0 -0.7689080027
O  O55  1  0.86837000  0.62003000  0.65408000  1.0 -0.7689080027
O  O56  1  0.12003000  0.63163000  0.65408000  1.0 -0.7689080027
O  O57  1  0.26982000  0.09068000  0.48882000  1.0 -0.8297549523
O  O58  1  0.59068000  0.23018000  0.48882000  1.0 -0.8297549523
O  O59  1  0.73018000  0.90932000  0.48882000  1.0 -0.8297549523
O  O60  1  0.40932000  0.76982000  0.48882000  1.0 -0.8297549523
O  O61  1  0.23018000  0.40932000  0.51118000  1.0 -0.8297549523
O  O62  1  0.90932000  0.26982000  0.51118000  1.0 -0.8297549523
O  O63  1  0.76982000  0.59068000  0.51118000  1.0 -0.8297549523
O  O64  1  0.09068000  0.73018000  0.51118000  1.0 -0.8297549523
O  O65  1  0.24824000  0.10918000  0.22132000  1.0 -0.8578310721
O  O66  1  0.60918000  0.25176000  0.22132000  1.0 -0.8578310721
O  O67  1  0.75176000  0.89082000  0.22132000  1.0 -0.8578310721
O  O68  1  0.39082000  0.74824000  0.22132000  1.0 -0.8578310721
O  O69  1  0.25176000  0.39082000  0.77868000  1.0 -0.8578310721
O  O70  1  0.89082000  0.24824000  0.77868000  1.0 -0.8578310721
O  O71  1  0.74824000  0.60918000  0.77868000  1.0 -0.8578310721
O  O72  1  0.10918000  0.75176000  0.77868000  1.0 -0.8578310721
O  O73  1  0.31803000  0.36797000  0.25217000  1.0 -0.7784734495
O  O74  1  0.86797000  0.18197000  0.25217000  1.0 -0.7784734495
O  O75  1  0.68197000  0.63203000  0.25217000  1.0 -0.7784734495
O  O76  1  0.13203000  0.81803000  0.25217000  1.0 -0.7784734495
O  O77  1  0.18197000  0.13203000  0.74783000  1.0 -0.7784734495
O  O78  1  0.63203000  0.31803000  0.74783000  1.0 -0.7784734495
O  O79  1  0.81803000  0.86797000  0.74783000  1.0 -0.7784734495
O  O80  1  0.36797000  0.68197000  0.74783000  1.0 -0.7784734495
O  O81  1  0.32980000  0.32864000  0.00746000  1.0 -0.7225327454
O  O82  1  0.82864000  0.17020000  0.00746000  1.0 -0.7225327454
O  O83  1  0.67020000  0.67136000  0.00746000  1.0 -0.7225327454
O  O84  1  0.17136000  0.82980000  0.00746000  1.0 -0.7225327454
O  O85  1  0.17020000  0.17136000  0.99254000  1.0 -0.7225327454
O  O86  1  0.67136000  0.32980000  0.99254000  1.0 -0.7225327454
O  O87  1  0.82980000  0.82864000  0.99254000  1.0 -0.7225327454
O  O88  1  0.32864000  0.67020000  0.99254000  1.0 -0.7225327454
O  O89  1  0.24539000  0.26487000  0.17445000  1.0 -0.8297549523
O  O90  1  0.76487000  0.25461000  0.17445000  1.0 -0.8297549523
O  O91  1  0.75461000  0.73513000  0.17445000  1.0 -0.8297549523
O  O92  1  0.23513000  0.74539000  0.17445000  1.0 -0.8297549523
O  O93  1  0.25461000  0.23513000  0.82555000  1.0 -0.8297549523
O  O94  1  0.73513000  0.24539000  0.82555000  1.0 -0.8297549523
O  O95  1  0.74539000  0.76487000  0.82555000  1.0 -0.8297549523
O  O96  1  0.26487000  0.75461000  0.82555000  1.0 -0.8297549523
