# DDEC6 charges by PACMAN v1.1 (https://github.com/mtap-research/PACMAN-charge/)
data_YIZJEY_ASR_pacman
_symmetry_space_group_name_H-M   'P 1'
_cell_length_a   14.53800000
_cell_length_b   14.53800000
_cell_length_c   17.51500000
_cell_angle_alpha   90.00000000
_cell_angle_beta   90.00000000
_cell_angle_gamma   120.00000000
_symmetry_Int_Tables_number   1
_chemical_formula_structural   Zn6P2H36C21(N6O)6
_chemical_formula_sum   'Zn12 P4 H72 C42 N72 O12'
_cell_volume   3205.90096620
_cell_formula_units_Z   2
loop_
 _symmetry_equiv_pos_site_id
 _symmetry_equiv_pos_as_xyz
  1  'x, y, z'
loop_
 _atom_site_type_symbol
 _atom_site_label
 _atom_site_symmetry_multiplicity
 _atom_site_fract_x
 _atom_site_fract_y
 _atom_site_fract_z
 _atom_site_occupancy
 _atom_site_charge
Zn  Zn1  1  0.75232000  0.18435000  0.57680000  1.0 0.7490195606
Zn  Zn2  1  0.81565000  0.56797000  0.57680000  1.0 0.7490195606
Zn  Zn3  1  0.43203000  0.24768000  0.57680000  1.0 0.7490195606
Zn  Zn4  1  0.24768000  0.81565000  0.42320000  1.0 0.7490195606
Zn  Zn5  1  0.18435000  0.43203000  0.42320000  1.0 0.7490195606
Zn  Zn6  1  0.56797000  0.75232000  0.42320000  1.0 0.7490195606
Zn  Zn7  1  0.75236000  0.18439000  0.92317000  1.0 0.7490195606
Zn  Zn8  1  0.81561000  0.56797000  0.92317000  1.0 0.7490195606
Zn  Zn9  1  0.43203000  0.24764000  0.92317000  1.0 0.7490195606
Zn  Zn10  1  0.24764000  0.81561000  0.07683000  1.0 0.7490195606
Zn  Zn11  1  0.18439000  0.43203000  0.07683000  1.0 0.7490195606
Zn  Zn12  1  0.56797000  0.75236000  0.07683000  1.0 0.7490195606
P  P1  1  0.66666667  0.33333333  0.96772000  1.0 0.5735602353
P  P2  1  0.33333333  0.66666667  0.03228000  1.0 0.5735602353
P  P3  1  0.66666667  0.33333333  0.53224000  1.0 0.5772154007
P  P4  1  0.33333333  0.66666667  0.46776000  1.0 0.5772154007
H  H1  1  0.62210000  0.09300000  0.06730000  1.0 0.1703311676
H  H2  1  0.90700000  0.52910000  0.06730000  1.0 0.1703311676
H  H3  1  0.47090000  0.37790000  0.06730000  1.0 0.1703311676
H  H4  1  0.37790000  0.90700000  0.93270000  1.0 0.1703311676
H  H5  1  0.09300000  0.47090000  0.93270000  1.0 0.1703311676
H  H6  1  0.52910000  0.62210000  0.93270000  1.0 0.1703311676
H  H7  1  0.63680000  0.01860000  0.12470000  1.0 0.1703311676
H  H8  1  0.98140000  0.61820000  0.12470000  1.0 0.1703311676
H  H9  1  0.38180000  0.36320000  0.12470000  1.0 0.1703311676
H  H10  1  0.36320000  0.98140000  0.87530000  1.0 0.1703311676
H  H11  1  0.01860000  0.38180000  0.87530000  1.0 0.1703311676
H  H12  1  0.61820000  0.63680000  0.87530000  1.0 0.1703311676
H  H13  1  0.52720000  0.97880000  0.08420000  1.0 0.1703311676
H  H14  1  0.02120000  0.54840000  0.08420000  1.0 0.1703311676
H  H15  1  0.45160000  0.47280000  0.08420000  1.0 0.1703311676
H  H16  1  0.47280000  0.02120000  0.91580000  1.0 0.1703311676
H  H17  1  0.97880000  0.45160000  0.91580000  1.0 0.1703311676
H  H18  1  0.54840000  0.52720000  0.91580000  1.0 0.1703311676
H  H19  1  0.58830000  0.14610000  0.80150000  1.0 0.1158358056
H  H20  1  0.85390000  0.44220000  0.80150000  1.0 0.1158358056
H  H21  1  0.55780000  0.41170000  0.80150000  1.0 0.1158358056
H  H22  1  0.41170000  0.85390000  0.19850000  1.0 0.1158358056
H  H23  1  0.14610000  0.55780000  0.19850000  1.0 0.1158358056
H  H24  1  0.44220000  0.58830000  0.19850000  1.0 0.1158358056
H  H25  1  0.57080000  0.09930000  0.71870000  1.0 0.1087843278
H  H26  1  0.90070000  0.47150000  0.71870000  1.0 0.1087843278
H  H27  1  0.52850000  0.42920000  0.71870000  1.0 0.1087843278
H  H28  1  0.42920000  0.90070000  0.28130000  1.0 0.1087843278
H  H29  1  0.09930000  0.52850000  0.28130000  1.0 0.1087843278
H  H30  1  0.47150000  0.57080000  0.28130000  1.0 0.1087843278
H  H31  1  0.61610000  0.22140000  0.73060000  1.0 0.129920793
H  H32  1  0.77860000  0.39470000  0.73060000  1.0 0.129920793
H  H33  1  0.60530000  0.38390000  0.73060000  1.0 0.129920793
H  H34  1  0.38390000  0.77860000  0.26940000  1.0 0.129920793
H  H35  1  0.22140000  0.60530000  0.26940000  1.0 0.129920793
H  H36  1  0.39470000  0.61610000  0.26940000  1.0 0.129920793
H  H37  1  0.57120000  0.96770000  0.38210000  1.0 0.1563621734
H  H38  1  0.03230000  0.60350000  0.38210000  1.0 0.1563621734
H  H39  1  0.39650000  0.42880000  0.38210000  1.0 0.1563621734
H  H40  1  0.42880000  0.03230000  0.61790000  1.0 0.1563621734
H  H41  1  0.96770000  0.39650000  0.61790000  1.0 0.1563621734
H  H42  1  0.60350000  0.57120000  0.61790000  1.0 0.1563621734
H  H43  1  0.66300000  0.08280000  0.40090000  1.0 0.1703311676
H  H44  1  0.91720000  0.58020000  0.40090000  1.0 0.1703311676
H  H45  1  0.41980000  0.33700000  0.40090000  1.0 0.1703311676
H  H46  1  0.33700000  0.91720000  0.59910000  1.0 0.1703311676
H  H47  1  0.08280000  0.41980000  0.59910000  1.0 0.1703311676
H  H48  1  0.58020000  0.66300000  0.59910000  1.0 0.1703311676
H  H49  1  0.55150000  0.03870000  0.43960000  1.0 0.1703311676
H  H50  1  0.96130000  0.51280000  0.43960000  1.0 0.1703311676
H  H51  1  0.48720000  0.44850000  0.43960000  1.0 0.1703311676
H  H52  1  0.44850000  0.96130000  0.56040000  1.0 0.1703311676
H  H53  1  0.03870000  0.48720000  0.56040000  1.0 0.1703311676
H  H54  1  0.51280000  0.55150000  0.56040000  1.0 0.1703311676
H  H55  1  0.58290000  0.10790000  0.80100000  1.0 0.1087843278
H  H56  1  0.89210000  0.47500000  0.80100000  1.0 0.1087843278
H  H57  1  0.52500000  0.41710000  0.80100000  1.0 0.1087843278
H  H58  1  0.41710000  0.89210000  0.19900000  1.0 0.1087843278
H  H59  1  0.10790000  0.52500000  0.19900000  1.0 0.1087843278
H  H60  1  0.47500000  0.58290000  0.19900000  1.0 0.1087843278
H  H61  1  0.58910000  0.04000000  0.73370000  1.0 0.1418158386
H  H62  1  0.96000000  0.54910000  0.73370000  1.0 0.1418158386
H  H63  1  0.45090000  0.41090000  0.73370000  1.0 0.1418158386
H  H64  1  0.41090000  0.96000000  0.26630000  1.0 0.1418158386
H  H65  1  0.04000000  0.45090000  0.26630000  1.0 0.1418158386
H  H66  1  0.54910000  0.58910000  0.26630000  1.0 0.1418158386
H  H67  1  0.57940000  0.14060000  0.71620000  1.0 0.1087843278
H  H68  1  0.85940000  0.43880000  0.71620000  1.0 0.1087843278
H  H69  1  0.56120000  0.42060000  0.71620000  1.0 0.1087843278
H  H70  1  0.42060000  0.85940000  0.28380000  1.0 0.1087843278
H  H71  1  0.14060000  0.56120000  0.28380000  1.0 0.1087843278
H  H72  1  0.43880000  0.57940000  0.28380000  1.0 0.1087843278
C  C1  1  0.60280000  0.02090000  0.07830000  1.0 -0.5068021244
C  C2  1  0.97910000  0.58190000  0.07830000  1.0 -0.5068021244
C  C3  1  0.41810000  0.39720000  0.07830000  1.0 -0.5068021244
C  C4  1  0.39720000  0.97910000  0.92170000  1.0 -0.5068021244
C  C5  1  0.02090000  0.41810000  0.92170000  1.0 -0.5068021244
C  C6  1  0.58190000  0.60280000  0.92170000  1.0 -0.5068021244
C  C7  1  0.63710000  0.97840000  0.01515000  1.0 0.3560924703
C  C8  1  0.02160000  0.65870000  0.01515000  1.0 0.3560924703
C  C9  1  0.34130000  0.36290000  0.01515000  1.0 0.3560924703
C  C10  1  0.36290000  0.02160000  0.98485000  1.0 0.3560924703
C  C11  1  0.97840000  0.34130000  0.98485000  1.0 0.3560924703
C  C12  1  0.65870000  0.63710000  0.98485000  1.0 0.3560924703
C  C13  1  0.61540000  0.15900000  0.75020000  1.0 -0.200843009
C  C14  1  0.84100000  0.45640000  0.75020000  1.0 -0.200843009
C  C15  1  0.54360000  0.38460000  0.75020000  1.0 -0.200843009
C  C16  1  0.38460000  0.84100000  0.24980000  1.0 -0.200843009
C  C17  1  0.15900000  0.54360000  0.24980000  1.0 -0.200843009
C  C18  1  0.45640000  0.61540000  0.24980000  1.0 -0.200843009
C  C19  1  0.72540000  0.17670000  0.75005000  1.0 0.2726273511
C  C20  1  0.82330000  0.54870000  0.75005000  1.0 0.2726273511
C  C21  1  0.45130000  0.27460000  0.75005000  1.0 0.2726273511
C  C22  1  0.27460000  0.82330000  0.24995000  1.0 0.2726273511
C  C23  1  0.17670000  0.45130000  0.24995000  1.0 0.2726273511
C  C24  1  0.54870000  0.72540000  0.24995000  1.0 0.2726273511
C  C25  1  0.60270000  0.02060000  0.42130000  1.0 -0.5192252523
C  C26  1  0.97940000  0.58210000  0.42130000  1.0 -0.5192252523
C  C27  1  0.41790000  0.39730000  0.42130000  1.0 -0.5192252523
C  C28  1  0.39730000  0.97940000  0.57870000  1.0 -0.5192252523
C  C29  1  0.02060000  0.41790000  0.57870000  1.0 -0.5192252523
C  C30  1  0.58210000  0.60270000  0.57870000  1.0 -0.5192252523
C  C31  1  0.63720000  0.97860000  0.48475000  1.0 0.3538153146
C  C32  1  0.02140000  0.65860000  0.48475000  1.0 0.3538153146
C  C33  1  0.34140000  0.36280000  0.48475000  1.0 0.3538153146
C  C34  1  0.36280000  0.02140000  0.51525000  1.0 0.3538153146
C  C35  1  0.97860000  0.34140000  0.51525000  1.0 0.3538153146
C  C36  1  0.65860000  0.63720000  0.51525000  1.0 0.3538153146
C  C37  1  0.60910000  0.11060000  0.75030000  1.0 -0.200843009
C  C38  1  0.88940000  0.49850000  0.75030000  1.0 -0.200843009
C  C39  1  0.50150000  0.39090000  0.75030000  1.0 -0.200843009
C  C40  1  0.39090000  0.88940000  0.24970000  1.0 -0.200843009
C  C41  1  0.11060000  0.50150000  0.24970000  1.0 -0.200843009
C  C42  1  0.49850000  0.60910000  0.24970000  1.0 -0.200843009
N  N1  1  0.62400000  0.88110000  0.01027000  1.0 -0.2422986503
N  N2  1  0.11890000  0.74290000  0.01027000  1.0 -0.2422986503
N  N3  1  0.25710000  0.37600000  0.01027000  1.0 -0.2422986503
N  N4  1  0.37600000  0.11890000  0.98973000  1.0 -0.2422986503
N  N5  1  0.88110000  0.25710000  0.98973000  1.0 -0.2422986503
N  N6  1  0.74290000  0.62400000  0.98973000  1.0 -0.2422986503
N  N7  1  0.66330000  0.87310000  0.94340000  1.0 -0.0367333902
N  N8  1  0.12690000  0.79020000  0.94340000  1.0 -0.0367333902
N  N9  1  0.20980000  0.33670000  0.94340000  1.0 -0.0367333902
N  N10  1  0.33670000  0.12690000  0.05660000  1.0 -0.0367333902
N  N11  1  0.87310000  0.20980000  0.05660000  1.0 -0.0367333902
N  N12  1  0.79020000  0.66330000  0.05660000  1.0 -0.0367333902
N  N13  1  0.70070000  0.96550000  0.90700000  1.0 -0.0794744772
N  N14  1  0.03450000  0.73520000  0.90700000  1.0 -0.0794744772
N  N15  1  0.26480000  0.29930000  0.90700000  1.0 -0.0794744772
N  N16  1  0.29930000  0.03450000  0.09300000  1.0 -0.0794744772
N  N17  1  0.96550000  0.26480000  0.09300000  1.0 -0.0794744772
N  N18  1  0.73520000  0.70070000  0.09300000  1.0 -0.0794744772
N  N19  1  0.68440000  0.03050000  0.95132000  1.0 -0.2422986503
N  N20  1  0.96950000  0.65390000  0.95132000  1.0 -0.2422986503
N  N21  1  0.34610000  0.31560000  0.95132000  1.0 -0.2422986503
N  N22  1  0.31560000  0.96950000  0.04868000  1.0 -0.2422986503
N  N23  1  0.03050000  0.34610000  0.04868000  1.0 -0.2422986503
N  N24  1  0.65390000  0.68440000  0.04868000  1.0 -0.2422986503
N  N25  1  0.78660000  0.19710000  0.81145000  1.0 -0.25953157
N  N26  1  0.80290000  0.58950000  0.81145000  1.0 -0.25953157
N  N27  1  0.41050000  0.21340000  0.81145000  1.0 -0.25953157
N  N28  1  0.21340000  0.80290000  0.18855000  1.0 -0.25953157
N  N29  1  0.19710000  0.41050000  0.18855000  1.0 -0.25953157
N  N30  1  0.58950000  0.78660000  0.18855000  1.0 -0.25953157
N  N31  1  0.88520000  0.23010000  0.78788000  1.0 -0.0679747165
N  N32  1  0.76990000  0.65510000  0.78788000  1.0 -0.0679747165
N  N33  1  0.34490000  0.11480000  0.78788000  1.0 -0.0679747165
N  N34  1  0.11480000  0.76990000  0.21212000  1.0 -0.0679747165
N  N35  1  0.23010000  0.34490000  0.21212000  1.0 -0.0679747165
N  N36  1  0.65510000  0.88520000  0.21212000  1.0 -0.0679747165
N  N37  1  0.88510000  0.23010000  0.71192000  1.0 -0.0642092651
N  N38  1  0.76990000  0.65500000  0.71192000  1.0 -0.0642092651
N  N39  1  0.34500000  0.11490000  0.71192000  1.0 -0.0642092651
N  N40  1  0.11490000  0.76990000  0.28808000  1.0 -0.0642092651
N  N41  1  0.23010000  0.34500000  0.28808000  1.0 -0.0642092651
N  N42  1  0.65500000  0.88510000  0.28808000  1.0 -0.0642092651
N  N43  1  0.78630000  0.19710000  0.68854000  1.0 -0.25953157
N  N44  1  0.80290000  0.58920000  0.68854000  1.0 -0.25953157
N  N45  1  0.41080000  0.21370000  0.68854000  1.0 -0.25953157
N  N46  1  0.21370000  0.80290000  0.31146000  1.0 -0.25953157
N  N47  1  0.19710000  0.41080000  0.31146000  1.0 -0.25953157
N  N48  1  0.58920000  0.78630000  0.31146000  1.0 -0.25953157
N  N49  1  0.68450000  0.03070000  0.54872000  1.0 -0.2484520998
N  N50  1  0.96930000  0.65380000  0.54872000  1.0 -0.2484520998
N  N51  1  0.34620000  0.31550000  0.54872000  1.0 -0.2484520998
N  N52  1  0.31550000  0.96930000  0.45128000  1.0 -0.2484520998
N  N53  1  0.03070000  0.34620000  0.45128000  1.0 -0.2484520998
N  N54  1  0.65380000  0.68450000  0.45128000  1.0 -0.2484520998
N  N55  1  0.70040000  0.96540000  0.59314000  1.0 -0.0794744772
N  N56  1  0.03460000  0.73500000  0.59314000  1.0 -0.0794744772
N  N57  1  0.26500000  0.29960000  0.59314000  1.0 -0.0794744772
N  N58  1  0.29960000  0.03460000  0.40686000  1.0 -0.0794744772
N  N59  1  0.96540000  0.26500000  0.40686000  1.0 -0.0794744772
N  N60  1  0.73500000  0.70040000  0.40686000  1.0 -0.0794744772
N  N61  1  0.66300000  0.87290000  0.55660000  1.0 -0.0214453319
N  N62  1  0.12710000  0.79010000  0.55660000  1.0 -0.0214453319
N  N63  1  0.20990000  0.33700000  0.55660000  1.0 -0.0214453319
N  N64  1  0.33700000  0.12710000  0.44340000  1.0 -0.0214453319
N  N65  1  0.87290000  0.20990000  0.44340000  1.0 -0.0214453319
N  N66  1  0.79010000  0.66300000  0.44340000  1.0 -0.0214453319
N  N67  1  0.62390000  0.88110000  0.48963000  1.0 -0.2484520998
N  N68  1  0.11890000  0.74280000  0.48963000  1.0 -0.2484520998
N  N69  1  0.25720000  0.37610000  0.48963000  1.0 -0.2484520998
N  N70  1  0.37610000  0.11890000  0.51037000  1.0 -0.2484520998
N  N71  1  0.88110000  0.25720000  0.51037000  1.0 -0.2484520998
N  N72  1  0.74280000  0.62390000  0.51037000  1.0 -0.2484520998
O  O1  1  0.64860000  0.22600000  0.55760000  1.0 -0.6534097891
O  O2  1  0.77400000  0.42260000  0.55760000  1.0 -0.6534097891
O  O3  1  0.57740000  0.35140000  0.55760000  1.0 -0.6534097891
O  O4  1  0.35140000  0.77400000  0.44240000  1.0 -0.6534097891
O  O5  1  0.22600000  0.57740000  0.44240000  1.0 -0.6534097891
O  O6  1  0.42260000  0.64860000  0.44240000  1.0 -0.6534097891
O  O7  1  0.64840000  0.22610000  0.94270000  1.0 -0.6534097891
O  O8  1  0.77390000  0.42230000  0.94270000  1.0 -0.6559602346
O  O9  1  0.57770000  0.35160000  0.94270000  1.0 -0.6534097891
O  O10  1  0.35160000  0.77390000  0.05730000  1.0 -0.6559602346
O  O11  1  0.22610000  0.57770000  0.05730000  1.0 -0.6559602346
O  O12  1  0.42230000  0.64840000  0.05730000  1.0 -0.6559602346
