# DDEC6 charges by PACMAN v1.1 (https://github.com/mtap-research/PACMAN-charge/)
data_YIZWIN_ASR_pacman
_symmetry_space_group_name_H-M   'P 1'
_cell_length_a   7.62800000
_cell_length_b   13.95000000
_cell_length_c   26.71300000
_cell_angle_alpha   90.00000000
_cell_angle_beta   90.00000000
_cell_angle_gamma   90.00000000
_symmetry_Int_Tables_number   1
_chemical_formula_structural   CdNiC7N6
_chemical_formula_sum   'Cd8 Ni8 C56 N48'
_cell_volume   2842.54635780
_cell_formula_units_Z   8
loop_
 _symmetry_equiv_pos_site_id
 _symmetry_equiv_pos_as_xyz
  1  'x, y, z'
loop_
 _atom_site_type_symbol
 _atom_site_label
 _atom_site_symmetry_multiplicity
 _atom_site_fract_x
 _atom_site_fract_y
 _atom_site_fract_z
 _atom_site_occupancy
 _atom_site_charge
Cd  Cd1  1  0.62347000  0.69205000  0.50000000  1.0 1.0215998287
Cd  Cd2  1  0.87653000  0.19205000  0.50000000  1.0 1.0215998287
Cd  Cd3  1  0.12347000  0.80795000  0.00000000  1.0 1.0215998287
Cd  Cd4  1  0.37653000  0.30795000  0.00000000  1.0 1.0215998287
Cd  Cd5  1  0.62463000  0.73930000  0.23083000  1.0 1.0072908694
Cd  Cd6  1  0.87537000  0.23930000  0.23083000  1.0 1.0072908694
Cd  Cd7  1  0.12463000  0.76070000  0.73083000  1.0 1.0072908694
Cd  Cd8  1  0.37537000  0.26070000  0.73083000  1.0 1.0072908694
Ni  Ni1  1  0.11515000  0.74864000  0.36621000  1.0 0.0862409736
Ni  Ni2  1  0.38485000  0.24864000  0.36621000  1.0 0.0862409736
Ni  Ni3  1  0.61515000  0.75136000  0.86621000  1.0 0.0862409736
Ni  Ni4  1  0.88485000  0.25136000  0.86621000  1.0 0.0862409736
Ni  Ni5  1  0.99480000  0.47564000  0.61622000  1.0 0.0862409736
Ni  Ni6  1  0.50520000  0.97564000  0.61622000  1.0 0.0838647033
Ni  Ni7  1  0.49480000  0.02436000  0.11622000  1.0 0.0838647033
Ni  Ni8  1  0.00520000  0.52436000  0.11622000  1.0 0.0838647033
C  C1  1  0.94300000  0.72960000  0.41440000  1.0 0.1762306566
C  C2  1  0.55700000  0.22960000  0.41440000  1.0 0.1762306566
C  C3  1  0.44300000  0.77040000  0.91440000  1.0 0.1762306566
C  C4  1  0.05700000  0.27040000  0.91440000  1.0 0.1762306566
C  C5  1  0.28880000  0.73370000  0.41400000  1.0 0.1489257304
C  C6  1  0.21120000  0.23370000  0.41400000  1.0 0.1489257304
C  C7  1  0.78880000  0.76630000  0.91400000  1.0 0.1489257304
C  C8  1  0.71120000  0.26630000  0.91400000  1.0 0.1489257304
C  C9  1  0.89790000  0.58100000  0.58360000  1.0 0.133597679
C  C10  1  0.60210000  0.08100000  0.58360000  1.0 0.1350742872
C  C11  1  0.39790000  0.91900000  0.08360000  1.0 0.133597679
C  C12  1  0.10210000  0.41900000  0.08360000  1.0 0.133597679
C  C13  1  0.92030000  0.39490000  0.56510000  1.0 0.1601632866
C  C14  1  0.57970000  0.89490000  0.56510000  1.0 0.1601632866
C  C15  1  0.42030000  0.10510000  0.06510000  1.0 0.1601632866
C  C16  1  0.07970000  0.60510000  0.06510000  1.0 0.1601632866
C  C17  1  0.94000000  0.76060000  0.31820000  1.0 0.1904216329
C  C18  1  0.56000000  0.26060000  0.31820000  1.0 0.1904216329
C  C19  1  0.44000000  0.73940000  0.81820000  1.0 0.1904216329
C  C20  1  0.06000000  0.23940000  0.81820000  1.0 0.1904216329
C  C21  1  0.28730000  0.76110000  0.31740000  1.0 0.1601632866
C  C22  1  0.21270000  0.26110000  0.31740000  1.0 0.1601632866
C  C23  1  0.78730000  0.73890000  0.81740000  1.0 0.1601632866
C  C24  1  0.71270000  0.23890000  0.81740000  1.0 0.1601632866
C  C25  1  0.09500000  0.37000000  0.64840000  1.0 0.133597679
C  C26  1  0.40500000  0.87000000  0.64840000  1.0 0.133597679
C  C27  1  0.59500000  0.13000000  0.14840000  1.0 0.1350742872
C  C28  1  0.90500000  0.63000000  0.14840000  1.0 0.133597679
C  C29  1  0.06900000  0.55570000  0.66730000  1.0 0.1714638509
C  C30  1  0.43100000  0.05570000  0.66730000  1.0 0.1714638509
C  C31  1  0.56900000  0.94430000  0.16730000  1.0 0.1714638509
C  C32  1  0.93100000  0.44430000  0.16730000  1.0 0.1714638509
C  C33  1  0.36100000  0.55150000  0.55400000  1.0 0.1489257304
C  C34  1  0.13900000  0.05150000  0.55400000  1.0 0.1489257304
C  C35  1  0.86100000  0.94850000  0.05400000  1.0 0.1489257304
C  C36  1  0.63900000  0.44850000  0.05400000  1.0 0.1489257304
C  C37  1  0.43300000  0.49630000  0.51940000  1.0 0.1904216329
C  C38  1  0.06700000  0.99630000  0.51940000  1.0 0.1904216329
C  C39  1  0.93300000  0.00370000  0.01940000  1.0 0.1904216329
C  C40  1  0.56700000  0.50370000  0.01940000  1.0 0.1904216329
C  C41  1  0.39100000  0.38990000  0.52000000  1.0 0.0979693322
C  C42  1  0.10900000  0.88990000  0.52000000  1.0 0.0979693322
C  C43  1  0.89100000  0.11010000  0.02000000  1.0 0.0979693322
C  C44  1  0.60900000  0.61010000  0.02000000  1.0 0.0979693322
C  C45  1  0.39700000  0.58980000  0.17160000  1.0 0.1714638509
C  C46  1  0.10300000  0.08980000  0.17160000  1.0 0.1762306566
C  C47  1  0.89700000  0.91020000  0.67160000  1.0 0.1714638509
C  C48  1  0.60300000  0.41020000  0.67160000  1.0 0.1714638509
C  C49  1  0.43400000  0.54150000  0.21490000  1.0 0.1904216329
C  C50  1  0.06600000  0.04150000  0.21490000  1.0 0.1904216329
C  C51  1  0.93400000  0.95850000  0.71490000  1.0 0.1904216329
C  C52  1  0.56600000  0.45850000  0.71490000  1.0 0.1904216329
C  C53  1  0.40900000  0.43290000  0.21330000  1.0 0.0979693322
C  C54  1  0.09100000  0.93290000  0.21330000  1.0 0.0979693322
C  C55  1  0.90900000  0.06710000  0.71330000  1.0 0.0979693322
C  C56  1  0.59100000  0.56710000  0.71330000  1.0 0.0979693322
N  N1  1  0.83590000  0.71770000  0.44320000  1.0 -0.3837825065
N  N2  1  0.66410000  0.21770000  0.44320000  1.0 -0.3837825065
N  N3  1  0.33590000  0.78230000  0.94320000  1.0 -0.3837825065
N  N4  1  0.16410000  0.28230000  0.94320000  1.0 -0.3884199863
N  N5  1  0.39950000  0.72430000  0.44270000  1.0 -0.3837825065
N  N6  1  0.10050000  0.22430000  0.44270000  1.0 -0.3837825065
N  N7  1  0.89950000  0.77570000  0.94270000  1.0 -0.3837825065
N  N8  1  0.60050000  0.27570000  0.94270000  1.0 -0.3837825065
N  N9  1  0.83200000  0.64290000  0.56240000  1.0 -0.3837825065
N  N10  1  0.66800000  0.14290000  0.56240000  1.0 -0.3884199863
N  N11  1  0.33200000  0.85710000  0.06240000  1.0 -0.3884199863
N  N12  1  0.16800000  0.35710000  0.06240000  1.0 -0.3884199863
N  N13  1  0.87580000  0.34520000  0.53410000  1.0 -0.3986734951
N  N14  1  0.62420000  0.84520000  0.53410000  1.0 -0.3986734951
N  N15  1  0.37580000  0.15480000  0.03410000  1.0 -0.3986734951
N  N16  1  0.12420000  0.65480000  0.03410000  1.0 -0.3986734951
N  N17  1  0.39400000  0.65280000  0.55740000  1.0 -0.2380466466
N  N18  1  0.10600000  0.15280000  0.55740000  1.0 -0.2380466466
N  N19  1  0.89400000  0.84720000  0.05740000  1.0 -0.2304297864
N  N20  1  0.60600000  0.34720000  0.05740000  1.0 -0.2304297864
N  N21  1  0.57130000  0.52820000  0.48700000  1.0 -0.3884199863
N  N22  1  0.92870000  0.02820000  0.48700000  1.0 -0.3884199863
N  N23  1  0.07130000  0.97180000  0.98700000  1.0 -0.3884199863
N  N24  1  0.42870000  0.47180000  0.98700000  1.0 -0.3884199863
N  N25  1  0.83510000  0.76170000  0.28820000  1.0 -0.3986734951
N  N26  1  0.66490000  0.26170000  0.28820000  1.0 -0.3986734951
N  N27  1  0.33510000  0.73830000  0.78820000  1.0 -0.3986734951
N  N28  1  0.16490000  0.23830000  0.78820000  1.0 -0.3986734951
N  N29  1  0.39570000  0.76520000  0.28800000  1.0 -0.3986734951
N  N30  1  0.10430000  0.26520000  0.28800000  1.0 -0.3986734951
N  N31  1  0.89570000  0.73480000  0.78800000  1.0 -0.3986734951
N  N32  1  0.60430000  0.23480000  0.78800000  1.0 -0.3986734951
N  N33  1  0.15900000  0.30700000  0.66760000  1.0 -0.3699845528
N  N34  1  0.34100000  0.80700000  0.66760000  1.0 -0.3699845528
N  N35  1  0.65900000  0.19300000  0.16760000  1.0 -0.3699845528
N  N36  1  0.84100000  0.69300000  0.16760000  1.0 -0.3699845528
N  N37  1  0.11630000  0.60720000  0.69740000  1.0 -0.4143952286
N  N38  1  0.38370000  0.10720000  0.69740000  1.0 -0.4143952286
N  N39  1  0.61630000  0.89280000  0.19740000  1.0 -0.4143952286
N  N40  1  0.88370000  0.39280000  0.19740000  1.0 -0.4143952286
N  N41  1  0.40300000  0.69730000  0.17270000  1.0 -0.2304297864
N  N42  1  0.09700000  0.19730000  0.17270000  1.0 -0.2304297864
N  N43  1  0.90300000  0.80270000  0.67270000  1.0 -0.2304297864
N  N44  1  0.59700000  0.30270000  0.67270000  1.0 -0.2304297864
N  N45  1  0.58690000  0.57240000  0.24410000  1.0 -0.3837825065
N  N46  1  0.91310000  0.07240000  0.24410000  1.0 -0.3837825065
N  N47  1  0.08690000  0.92760000  0.74410000  1.0 -0.3837825065
N  N48  1  0.41310000  0.42760000  0.74410000  1.0 -0.3837825065
