# DDEC6 charges by PACMAN v1.1 (https://github.com/mtap-research/PACMAN-charge/)
data_YOBNUB_FSR_pacman
_symmetry_space_group_name_H-M   'P 1'
_cell_length_a   18.42520000
_cell_length_b   18.42520000
_cell_length_c   13.56800000
_cell_angle_alpha   83.23880000
_cell_angle_beta   96.76120000
_cell_angle_gamma   132.57300000
_symmetry_Int_Tables_number   1
_chemical_formula_structural   Ni3H34C42(NO9)2
_chemical_formula_sum   'Ni6 H68 C84 N4 O36'
_cell_volume   3363.89871021
_cell_formula_units_Z   2
loop_
 _symmetry_equiv_pos_site_id
 _symmetry_equiv_pos_as_xyz
  1  'x, y, z'
loop_
 _atom_site_type_symbol
 _atom_site_label
 _atom_site_symmetry_multiplicity
 _atom_site_fract_x
 _atom_site_fract_y
 _atom_site_fract_z
 _atom_site_occupancy
 _atom_site_charge
Ni  Ni1  1  0.86472000  0.54368000  0.34381000  1.0 0.8564043002
Ni  Ni2  1  0.54368000  0.86472000  0.15619000  1.0 0.8564043002
Ni  Ni3  1  0.13528000  0.45632000  0.65619000  1.0 0.8564043002
Ni  Ni4  1  0.45632000  0.13528000  0.84381000  1.0 0.8564043002
Ni  Ni5  1  0.00000000  0.50000000  0.50000000  1.0 1.1082206326
Ni  Ni6  1  0.50000000  0.00000000  0.00000000  1.0 1.1082206326
H  H1  1  0.17830000  0.78710000  0.64170000  1.0 0.128789415
H  H2  1  0.19910000  0.01750000  0.64610000  1.0 0.128789415
H  H3  1  0.98350000  0.78950000  0.48000000  1.0 0.1214318454
H  H4  1  0.08230000  0.03030000  0.65250000  1.0 0.1214318454
H  H5  1  0.98260000  0.89980000  0.39600000  1.0 0.128789415
H  H6  1  0.66360000  0.23540000  0.81740000  1.0 0.1214318454
H  H7  1  0.78580000  0.33240000  0.70890000  1.0 0.1575898336
H  H8  1  0.60010000  0.32830000  0.51880000  1.0 0.1351850027
H  H9  1  0.48070000  0.22610000  0.63210000  1.0 0.1214318454
H  H10  1  0.89050000  0.71530000  0.31120000  1.0 0.1214318454
H  H11  1  0.81020000  0.69480000  0.37170000  1.0 0.1000854423
H  H12  1  0.79330000  0.68290000  0.25660000  1.0 0.3205795246
H  H13  1  0.66380000  0.44460000  0.35280000  1.0 0.1214318454
H  H14  1  0.64570000  0.50610000  0.28380000  1.0 0.128789415
H  H15  1  0.66260000  0.51800000  0.39890000  1.0 0.1214318454
H  H16  1  0.16610000  0.09830000  0.53110000  1.0 0.128789415
H  H17  1  0.89800000  0.83080000  0.51690000  1.0 0.128789415
H  H18  1  0.78710000  0.17830000  0.85830000  1.0 0.128789415
H  H19  1  0.01750000  0.19910000  0.85390000  1.0 0.128789415
H  H20  1  0.78950000  0.98350000  0.02000000  1.0 0.1214318454
H  H21  1  0.03030000  0.08230000  0.84750000  1.0 0.1214318454
H  H22  1  0.89980000  0.98260000  0.10400000  1.0 0.128789415
H  H23  1  0.23540000  0.66360000  0.68260000  1.0 0.1214318454
H  H24  1  0.33240000  0.78580000  0.79110000  1.0 0.1575898336
H  H25  1  0.32830000  0.60010000  0.98120000  1.0 0.1351850027
H  H26  1  0.22610000  0.48070000  0.86790000  1.0 0.1214318454
H  H27  1  0.71530000  0.89050000  0.18880000  1.0 0.1214318454
H  H28  1  0.69480000  0.81020000  0.12830000  1.0 0.1000854423
H  H29  1  0.68290000  0.79330000  0.24340000  1.0 0.3205795246
H  H30  1  0.44460000  0.66380000  0.14720000  1.0 0.1214318454
H  H31  1  0.50610000  0.64570000  0.21620000  1.0 0.128789415
H  H32  1  0.51800000  0.66260000  0.10110000  1.0 0.1214318454
H  H33  1  0.09830000  0.16610000  0.96890000  1.0 0.128789415
H  H34  1  0.83080000  0.89800000  0.98310000  1.0 0.128789415
H  H35  1  0.82170000  0.21290000  0.35830000  1.0 0.128789415
H  H36  1  0.80090000  0.98250000  0.35390000  1.0 0.128789415
H  H37  1  0.01650000  0.21050000  0.52000000  1.0 0.1214318454
H  H38  1  0.91770000  0.96970000  0.34750000  1.0 0.1214318454
H  H39  1  0.01740000  0.10020000  0.60400000  1.0 0.128789415
H  H40  1  0.33640000  0.76460000  0.18260000  1.0 0.1214318454
H  H41  1  0.21420000  0.66760000  0.29110000  1.0 0.1575898336
H  H42  1  0.39990000  0.67170000  0.48120000  1.0 0.1351850027
H  H43  1  0.51930000  0.77390000  0.36790000  1.0 0.1214318454
H  H44  1  0.10950000  0.28470000  0.68880000  1.0 0.1214318454
H  H45  1  0.18980000  0.30520000  0.62830000  1.0 0.1000854423
H  H46  1  0.20670000  0.31710000  0.74340000  1.0 0.3205795246
H  H47  1  0.33620000  0.55540000  0.64720000  1.0 0.1214318454
H  H48  1  0.35430000  0.49390000  0.71620000  1.0 0.128789415
H  H49  1  0.33740000  0.48200000  0.60110000  1.0 0.1214318454
H  H50  1  0.83390000  0.90170000  0.46890000  1.0 0.128789415
H  H51  1  0.10200000  0.16920000  0.48310000  1.0 0.128789415
H  H52  1  0.21290000  0.82170000  0.14170000  1.0 0.128789415
H  H53  1  0.98250000  0.80090000  0.14610000  1.0 0.128789415
H  H54  1  0.21050000  0.01650000  0.98000000  1.0 0.1214318454
H  H55  1  0.96970000  0.91770000  0.15250000  1.0 0.1214318454
H  H56  1  0.10020000  0.01740000  0.89600000  1.0 0.128789415
H  H57  1  0.76460000  0.33640000  0.31740000  1.0 0.1214318454
H  H58  1  0.66760000  0.21420000  0.20890000  1.0 0.1575898336
H  H59  1  0.67170000  0.39990000  0.01880000  1.0 0.1351850027
H  H60  1  0.77390000  0.51930000  0.13210000  1.0 0.1214318454
H  H61  1  0.28470000  0.10950000  0.81120000  1.0 0.1214318454
H  H62  1  0.30520000  0.18980000  0.87170000  1.0 0.1000854423
H  H63  1  0.31710000  0.20670000  0.75660000  1.0 0.3205795246
H  H64  1  0.55540000  0.33620000  0.85280000  1.0 0.1214318454
H  H65  1  0.49390000  0.35430000  0.78380000  1.0 0.128789415
H  H66  1  0.48200000  0.33740000  0.89890000  1.0 0.1214318454
H  H67  1  0.90170000  0.83390000  0.03110000  1.0 0.128789415
H  H68  1  0.16920000  0.10200000  0.01690000  1.0 0.128789415
C  C1  1  0.07268000  0.77312000  0.55430000  1.0 0.0072139763
C  C2  1  0.15500000  0.81820000  0.62030000  1.0 -0.1109461361
C  C3  1  0.20215000  0.91045000  0.65420000  1.0 0.0072139763
C  C4  1  0.16620000  0.95560000  0.62380000  1.0 -0.1666149577
C  C5  1  0.08220000  0.91100000  0.56070000  1.0 0.0588842374
C  C6  1  0.03780000  0.81960000  0.52480000  1.0 -0.1812786205
C  C7  1  0.02256000  0.67604000  0.51050000  1.0 0.5879725175
C  C8  1  0.29370000  0.96170000  0.72470000  1.0 0.5582559066
C  C9  1  0.04000000  0.95680000  0.52950000  1.0 0.0588842374
C  C10  1  0.04910000  0.01750000  0.59060000  1.0 -0.0775601981
C  C11  1  0.99000000  0.94060000  0.43890000  1.0 -0.0696656598
C  C12  1  0.65070000  0.25450000  0.75640000  1.0 0.0870760655
C  C13  1  0.72450000  0.31290000  0.69160000  1.0 -0.1344888887
C  C14  1  0.70807000  0.34313000  0.59960000  1.0 0.0297047472
C  C15  1  0.61500000  0.31000000  0.57910000  1.0 -0.1632712824
C  C16  1  0.54350000  0.24950000  0.64830000  1.0 0.0870760655
C  C17  1  0.78914000  0.40846000  0.52720000  1.0 0.5730080562
C  C18  1  0.82090000  0.67510000  0.31700000  1.0 -0.2220958458
C  C19  1  0.68060000  0.50680000  0.34300000  1.0 -0.1666149577
C  C20  1  0.09840000  0.05780000  0.51850000  1.0 -0.0555973027
C  C21  1  0.94000000  0.89920000  0.51030000  1.0 -0.0696656598
C  C22  1  0.77312000  0.07268000  0.94570000  1.0 0.0072139763
C  C23  1  0.81820000  0.15500000  0.87970000  1.0 -0.1109461361
C  C24  1  0.91045000  0.20215000  0.84580000  1.0 0.0072139763
C  C25  1  0.95560000  0.16620000  0.87620000  1.0 -0.1666149577
C  C26  1  0.91100000  0.08220000  0.93930000  1.0 0.0588842374
C  C27  1  0.81960000  0.03780000  0.97520000  1.0 -0.1812786205
C  C28  1  0.67604000  0.02256000  0.98950000  1.0 0.5879725175
C  C29  1  0.96170000  0.29370000  0.77530000  1.0 0.5582559066
C  C30  1  0.95680000  0.04000000  0.97050000  1.0 0.0588842374
C  C31  1  0.01750000  0.04910000  0.90940000  1.0 -0.0775601981
C  C32  1  0.94060000  0.99000000  0.06110000  1.0 -0.0696656598
C  C33  1  0.25450000  0.65070000  0.74360000  1.0 0.0870760655
C  C34  1  0.31290000  0.72450000  0.80840000  1.0 -0.1344888887
C  C35  1  0.34313000  0.70807000  0.90040000  1.0 0.0297047472
C  C36  1  0.31000000  0.61500000  0.92090000  1.0 -0.1632712824
C  C37  1  0.24950000  0.54350000  0.85170000  1.0 0.0870760655
C  C38  1  0.40846000  0.78914000  0.97280000  1.0 0.5730080562
C  C39  1  0.67510000  0.82090000  0.18300000  1.0 -0.2220958458
C  C40  1  0.50680000  0.68060000  0.15700000  1.0 -0.1666149577
C  C41  1  0.05780000  0.09840000  0.98150000  1.0 -0.0555973027
C  C42  1  0.89920000  0.94000000  0.98970000  1.0 -0.0696656598
C  C43  1  0.92732000  0.22688000  0.44570000  1.0 0.0072139763
C  C44  1  0.84500000  0.18180000  0.37970000  1.0 -0.1109461361
C  C45  1  0.79785000  0.08955000  0.34580000  1.0 0.0072139763
C  C46  1  0.83380000  0.04440000  0.37620000  1.0 -0.1666149577
C  C47  1  0.91780000  0.08900000  0.43930000  1.0 0.0588842374
C  C48  1  0.96220000  0.18040000  0.47520000  1.0 -0.1812786205
C  C49  1  0.97744000  0.32396000  0.48950000  1.0 0.5879725175
C  C50  1  0.70630000  0.03830000  0.27530000  1.0 0.5582559066
C  C51  1  0.96000000  0.04320000  0.47050000  1.0 0.0588842374
C  C52  1  0.95090000  0.98250000  0.40940000  1.0 -0.0775601981
C  C53  1  0.01000000  0.05940000  0.56110000  1.0 -0.0696656598
C  C54  1  0.34930000  0.74550000  0.24360000  1.0 0.0870760655
C  C55  1  0.27550000  0.68710000  0.30840000  1.0 -0.1344888887
C  C56  1  0.29193000  0.65687000  0.40040000  1.0 0.0297047472
C  C57  1  0.38500000  0.69000000  0.42090000  1.0 -0.1632712824
C  C58  1  0.45650000  0.75050000  0.35170000  1.0 0.0870760655
C  C59  1  0.21086000  0.59154000  0.47280000  1.0 0.5730080562
C  C60  1  0.17910000  0.32490000  0.68300000  1.0 -0.2220958458
C  C61  1  0.31940000  0.49320000  0.65700000  1.0 -0.1666149577
C  C62  1  0.90160000  0.94220000  0.48150000  1.0 -0.0555973027
C  C63  1  0.06000000  0.10080000  0.48970000  1.0 -0.0696656598
C  C64  1  0.22688000  0.92732000  0.05430000  1.0 0.0072139763
C  C65  1  0.18180000  0.84500000  0.12030000  1.0 -0.1109461361
C  C66  1  0.08955000  0.79785000  0.15420000  1.0 0.0072139763
C  C67  1  0.04440000  0.83380000  0.12380000  1.0 -0.1666149577
C  C68  1  0.08900000  0.91780000  0.06070000  1.0 0.0588842374
C  C69  1  0.18040000  0.96220000  0.02480000  1.0 -0.1812786205
C  C70  1  0.32396000  0.97744000  0.01050000  1.0 0.5879725175
C  C71  1  0.03830000  0.70630000  0.22470000  1.0 0.5582559066
C  C72  1  0.04320000  0.96000000  0.02950000  1.0 0.0588842374
C  C73  1  0.98250000  0.95090000  0.09060000  1.0 -0.0775601981
C  C74  1  0.05940000  0.01000000  0.93890000  1.0 -0.0696656598
C  C75  1  0.74550000  0.34930000  0.25640000  1.0 0.0870760655
C  C76  1  0.68710000  0.27550000  0.19160000  1.0 -0.1344888887
C  C77  1  0.65687000  0.29193000  0.09960000  1.0 0.0297047472
C  C78  1  0.69000000  0.38500000  0.07910000  1.0 -0.1632712824
C  C79  1  0.75050000  0.45650000  0.14830000  1.0 0.0870760655
C  C80  1  0.59154000  0.21086000  0.02720000  1.0 0.5730080562
C  C81  1  0.32490000  0.17910000  0.81700000  1.0 -0.2220958458
C  C82  1  0.49320000  0.31940000  0.84300000  1.0 -0.1666149577
C  C83  1  0.94220000  0.90160000  0.01850000  1.0 -0.0555973027
C  C84  1  0.10080000  0.06000000  0.01030000  1.0 -0.0696656598
N  N1  1  0.56095000  0.22325000  0.73700000  1.0 -0.2220958458
N  N2  1  0.22325000  0.56095000  0.76300000  1.0 -0.2220958458
N  N3  1  0.43905000  0.77675000  0.26300000  1.0 -0.2220958458
N  N4  1  0.77675000  0.43905000  0.23700000  1.0 -0.2220958458
O  O1  1  0.05583000  0.63497000  0.53700000  1.0 -0.5161260409
O  O2  1  0.95013000  0.64427000  0.45020000  1.0 -0.5360557182
O  O3  1  0.31326000  0.91154000  0.76460000  1.0 -0.4694656027
O  O4  1  0.34290000  0.05130000  0.73660000  1.0 -0.5477803839
O  O5  1  0.86816000  0.43064000  0.55520000  1.0 -0.4810373379
O  O6  1  0.76949000  0.43491000  0.44680000  1.0 -0.5477803839
O  O7  1  0.77641000  0.57819000  0.33230000  1.0 -0.0532173743
O  O8  1  0.96309000  0.51971000  0.35410000  1.0 -0.3829691453
O  O9  1  0.75900000  0.66240000  0.16200000  1.0 -0.6244661255
O  O10  1  0.63497000  0.05583000  0.96300000  1.0 -0.5161260409
O  O11  1  0.64427000  0.95013000  0.04980000  1.0 -0.5360557182
O  O12  1  0.91154000  0.31326000  0.73540000  1.0 -0.4694656027
O  O13  1  0.05130000  0.34290000  0.76340000  1.0 -0.5477803839
O  O14  1  0.43064000  0.86816000  0.94480000  1.0 -0.4810373379
O  O15  1  0.43491000  0.76949000  0.05320000  1.0 -0.5477803839
O  O16  1  0.57819000  0.77641000  0.16770000  1.0 -0.0555973027
O  O17  1  0.51971000  0.96309000  0.14590000  1.0 -0.3829691453
O  O18  1  0.66240000  0.75900000  0.33800000  1.0 -0.6253974083
O  O19  1  0.94417000  0.36503000  0.46300000  1.0 -0.5161260409
O  O20  1  0.04987000  0.35573000  0.54980000  1.0 -0.5360557182
O  O21  1  0.68674000  0.08846000  0.23540000  1.0 -0.4694656027
O  O22  1  0.65710000  0.94870000  0.26340000  1.0 -0.5477803839
O  O23  1  0.13184000  0.56936000  0.44480000  1.0 -0.4810373379
O  O24  1  0.23051000  0.56509000  0.55320000  1.0 -0.5477803839
O  O25  1  0.22359000  0.42181000  0.66770000  1.0 -0.0555973027
O  O26  1  0.03691000  0.48029000  0.64590000  1.0 -0.3829691453
O  O27  1  0.24100000  0.33760000  0.83800000  1.0 -0.6253974083
O  O28  1  0.36503000  0.94417000  0.03700000  1.0 -0.5161260409
O  O29  1  0.35573000  0.04987000  0.95020000  1.0 -0.5360557182
O  O30  1  0.08846000  0.68674000  0.26460000  1.0 -0.4694656027
O  O31  1  0.94870000  0.65710000  0.23660000  1.0 -0.5477803839
O  O32  1  0.56936000  0.13184000  0.05520000  1.0 -0.4810373379
O  O33  1  0.56509000  0.23051000  0.94680000  1.0 -0.5477803839
O  O34  1  0.42181000  0.22359000  0.83230000  1.0 -0.0555973027
O  O35  1  0.48029000  0.03691000  0.85410000  1.0 -0.3858760936
O  O36  1  0.33760000  0.24100000  0.66200000  1.0 -0.6253974083
