# DDEC6 charges by PACMAN v1.1 (https://github.com/mtap-research/PACMAN-charge/)
data_YOBYAR_ASR_pacman
_symmetry_space_group_name_H-M   'P 1'
_cell_length_a   24.50020000
_cell_length_b   24.50020000
_cell_length_c   24.50020000
_cell_angle_alpha   117.79000000
_cell_angle_beta   117.79000000
_cell_angle_gamma   93.87260000
_symmetry_Int_Tables_number   1
_chemical_formula_structural   ZnNiH10(C11O4)2
_chemical_formula_sum   'Zn8 Ni8 H80 C176 O64'
_cell_volume   10719.92514724
_cell_formula_units_Z   8
loop_
 _symmetry_equiv_pos_site_id
 _symmetry_equiv_pos_as_xyz
  1  'x, y, z'
loop_
 _atom_site_type_symbol
 _atom_site_label
 _atom_site_symmetry_multiplicity
 _atom_site_fract_x
 _atom_site_fract_y
 _atom_site_fract_z
 _atom_site_occupancy
 _atom_site_charge
Zn  Zn1  1  0.04937000  0.55804000  0.03089000  1.0 0.9299755124
Zn  Zn2  1  0.44196000  0.47285000  0.49133000  1.0 0.9299755124
Zn  Zn3  1  0.52715000  0.01848000  0.96911000  1.0 0.9299755124
Zn  Zn4  1  0.98152000  0.95063000  0.50867000  1.0 0.9299755124
Zn  Zn5  1  0.23190000  0.69850000  0.00626000  1.0 0.9299755124
Zn  Zn6  1  0.30150000  0.30776000  0.53340000  1.0 0.9299755124
Zn  Zn7  1  0.69224000  0.22564000  0.99374000  1.0 0.9299755124
Zn  Zn8  1  0.77436000  0.76810000  0.46660000  1.0 0.9299755124
Ni  Ni1  1  0.20830000  0.58108000  0.09398000  1.0 0.9901552749
Ni  Ni2  1  0.41892000  0.51290000  0.62722000  1.0 0.9901552749
Ni  Ni3  1  0.48710000  0.11432000  0.90602000  1.0 0.9901552749
Ni  Ni4  1  0.88568000  0.79170000  0.37278000  1.0 0.9901552749
Ni  Ni5  1  0.11891000  0.23397000  0.42312000  1.0 0.9534345371
Ni  Ni6  1  0.76603000  0.18915000  0.88494000  1.0 0.9534345371
Ni  Ni7  1  0.81085000  0.69579000  0.57688000  1.0 0.9534345371
Ni  Ni8  1  0.30421000  0.88109000  0.11506000  1.0 0.9534345371
H  H1  1  0.07070000  0.35380000  0.85270000  1.0 0.1206569844
H  H2  1  0.64620000  0.49890000  0.71690000  1.0 0.1206569844
H  H3  1  0.50110000  0.21800000  0.14730000  1.0 0.1206569844
H  H4  1  0.78200000  0.92930000  0.28310000  1.0 0.1206569844
H  H5  1  0.21410000  0.49890000  0.86420000  1.0 0.1206569844
H  H6  1  0.50110000  0.36530000  0.71520000  1.0 0.1206569844
H  H7  1  0.63470000  0.34990000  0.13580000  1.0 0.1206569844
H  H8  1  0.65010000  0.78590000  0.28480000  1.0 0.1206569844
H  H9  1  0.00290000  0.26310000  0.71260000  1.0 0.1206569844
H  H10  1  0.73690000  0.44950000  0.73980000  1.0 0.1206569844
H  H11  1  0.55050000  0.29030000  0.28740000  1.0 0.1206569844
H  H12  1  0.70970000  0.99710000  0.26020000  1.0 0.1206569844
H  H13  1  0.97340000  0.14700000  0.63240000  1.0 0.1206569844
H  H14  1  0.85300000  0.48540000  0.82640000  1.0 0.1206569844
H  H15  1  0.51460000  0.34100000  0.36760000  1.0 0.1206569844
H  H16  1  0.65900000  0.02660000  0.17360000  1.0 0.1206569844
H  H17  1  0.16290000  0.16540000  0.71610000  1.0 0.1206569844
H  H18  1  0.83460000  0.55070000  0.99750000  1.0 0.1206569844
H  H19  1  0.44930000  0.44680000  0.28390000  1.0 0.1206569844
H  H20  1  0.55320000  0.83710000  0.00250000  1.0 0.1206569844
H  H21  1  0.19730000  0.28480000  0.79590000  1.0 0.109933108
H  H22  1  0.71520000  0.51110000  0.91250000  1.0 0.109933108
H  H23  1  0.48890000  0.40140000  0.20410000  1.0 0.109933108
H  H24  1  0.59860000  0.80270000  0.08750000  1.0 0.109933108
H  H25  1  0.08780000  0.31730000  0.66330000  1.0 0.1206569844
H  H26  1  0.68270000  0.34600000  0.77050000  1.0 0.1206569844
H  H27  1  0.65400000  0.42450000  0.33670000  1.0 0.1206569844
H  H28  1  0.57550000  0.91220000  0.22950000  1.0 0.1206569844
H  H29  1  0.11460000  0.28210000  0.57570000  1.0 0.1206569844
H  H30  1  0.71790000  0.29360000  0.83250000  1.0 0.1206569844
H  H31  1  0.70640000  0.53890000  0.42430000  1.0 0.1206569844
H  H32  1  0.46110000  0.88540000  0.16750000  1.0 0.1206569844
H  H33  1  0.30640000  0.39870000  0.74030000  1.0 0.1278300508
H  H34  1  0.60130000  0.34160000  0.90770000  1.0 0.1278300508
H  H35  1  0.65840000  0.56610000  0.25970000  1.0 0.1278300508
H  H36  1  0.43390000  0.69360000  0.09230000  1.0 0.1278300508
H  H37  1  0.28100000  0.43270000  0.83050000  1.0 0.1206569844
H  H38  1  0.56730000  0.39780000  0.84830000  1.0 0.1206569844
H  H39  1  0.60220000  0.45050000  0.16950000  1.0 0.1206569844
H  H40  1  0.54950000  0.71900000  0.15170000  1.0 0.1206569844
H  H41  1  0.24500000  0.90890000  0.23190000  1.0 0.1206569844
H  H42  1  0.09110000  0.32300000  0.33610000  1.0 0.1206569844
H  H43  1  0.67700000  0.01310000  0.76810000  1.0 0.1206569844
H  H44  1  0.98690000  0.75500000  0.66390000  1.0 0.1206569844
H  H45  1  0.10120000  0.74620000  0.20120000  1.0 0.1278300508
H  H46  1  0.25380000  0.45500000  0.35500000  1.0 0.1278300508
H  H47  1  0.54500000  0.90000000  0.79880000  1.0 0.1278300508
H  H48  1  0.10000000  0.89880000  0.64500000  1.0 0.1278300508
H  H49  1  0.09630000  0.95350000  0.25140000  1.0 0.1206569844
H  H50  1  0.04650000  0.29790000  0.14280000  1.0 0.1206569844
H  H51  1  0.70210000  0.84490000  0.74860000  1.0 0.1206569844
H  H52  1  0.15510000  0.90370000  0.85720000  1.0 0.1206569844
H  H53  1  0.11290000  0.06560000  0.31410000  1.0 0.1206569844
H  H54  1  0.93440000  0.24850000  0.04730000  1.0 0.1206569844
H  H55  1  0.75150000  0.79880000  0.68590000  1.0 0.1206569844
H  H56  1  0.20120000  0.88710000  0.95270000  1.0 0.1206569844
H  H57  1  0.31130000  0.11310000  0.43500000  1.0 0.1278300508
H  H58  1  0.88690000  0.32190000  0.19820000  1.0 0.1278300508
H  H59  1  0.67810000  0.87630000  0.56500000  1.0 0.1278300508
H  H60  1  0.12370000  0.68870000  0.80180000  1.0 0.1278300508
H  H61  1  0.29410000  0.99930000  0.37060000  1.0 0.1206569844
H  H62  1  0.00070000  0.37130000  0.29480000  1.0 0.1206569844
H  H63  1  0.62870000  0.92350000  0.62940000  1.0 0.1206569844
H  H64  1  0.07650000  0.70590000  0.70520000  1.0 0.1206569844
H  H65  1  0.02010000  0.78390000  0.20000000  1.0 0.1206569844
H  H66  1  0.21610000  0.41610000  0.23620000  1.0 0.1206569844
H  H67  1  0.58390000  0.82010000  0.80000000  1.0 0.1206569844
H  H68  1  0.17990000  0.97990000  0.76380000  1.0 0.1206569844
H  H69  1  0.96520000  0.79380000  0.26000000  1.0 0.1206569844
H  H70  1  0.20620000  0.46620000  0.17140000  1.0 0.1206569844
H  H71  1  0.53380000  0.70520000  0.74000000  1.0 0.1206569844
H  H72  1  0.29480000  0.03480000  0.82860000  1.0 0.1206569844
H  H73  1  0.13120000  0.94380000  0.45680000  1.0 0.1278300508
H  H74  1  0.05620000  0.51300000  0.18740000  1.0 0.1278300508
H  H75  1  0.48700000  0.67440000  0.54320000  1.0 0.1278300508
H  H76  1  0.32560000  0.86880000  0.81260000  1.0 0.1278300508
H  H77  1  0.18450000  0.93590000  0.39660000  1.0 0.109933108
H  H78  1  0.06410000  0.46070000  0.24860000  1.0 0.109933108
H  H79  1  0.53930000  0.78790000  0.60340000  1.0 0.109933108
H  H80  1  0.21210000  0.81550000  0.75140000  1.0 0.109933108
C  C1  1  0.16233000  0.49523000  0.90790000  1.0 -0.0319505786
C  C2  1  0.50477000  0.41267000  0.66710000  1.0 -0.0319505786
C  C3  1  0.58733000  0.25443000  0.09210000  1.0 -0.0319505786
C  C4  1  0.74557000  0.83767000  0.33290000  1.0 -0.0319505786
C  C5  1  0.11797000  0.45087000  0.90270000  1.0 -0.0319505786
C  C6  1  0.54913000  0.45183000  0.66710000  1.0 -0.0319505786
C  C7  1  0.54817000  0.21527000  0.09730000  1.0 -0.0319505786
C  C8  1  0.78473000  0.88203000  0.33290000  1.0 -0.0319505786
C  C9  1  0.09989000  0.38349000  0.85480000  1.0 -0.144420323
C  C10  1  0.61651000  0.47131000  0.71640000  1.0 -0.144420323
C  C11  1  0.52869000  0.24509000  0.14520000  1.0 -0.144420323
C  C12  1  0.75491000  0.90011000  0.28360000  1.0 -0.144420323
C  C13  1  0.12340000  0.35760000  0.80920000  1.0 0.0337761724
C  C14  1  0.64240000  0.45160000  0.76580000  1.0 0.0337761724
C  C15  1  0.54840000  0.31420000  0.19080000  1.0 0.0337761724
C  C16  1  0.68580000  0.87660000  0.23420000  1.0 0.0337761724
C  C17  1  0.16440000  0.40200000  0.81040000  1.0 0.0230278369
C  C18  1  0.59800000  0.40840000  0.76240000  1.0 0.0230278369
C  C19  1  0.59160000  0.35400000  0.18960000  1.0 0.0230278369
C  C20  1  0.64600000  0.83560000  0.23760000  1.0 0.0230278369
C  C21  1  0.18420000  0.46910000  0.86110000  1.0 -0.1565406429
C  C22  1  0.53090000  0.39200000  0.71510000  1.0 -0.1565406429
C  C23  1  0.60800000  0.32310000  0.13890000  1.0 -0.1565406429
C  C24  1  0.67690000  0.81580000  0.28490000  1.0 -0.1565406429
C  C25  1  0.19046000  0.56926000  0.95940000  1.0 0.6018496754
C  C26  1  0.43074000  0.39014000  0.62120000  1.0 0.6018496754
C  C27  1  0.60986000  0.23106000  0.04060000  1.0 0.6018496754
C  C28  1  0.76894000  0.80954000  0.37880000  1.0 0.6018496754
C  C29  1  0.08790000  0.47040000  0.94650000  1.0 0.5781474663
C  C30  1  0.52960000  0.47610000  0.61750000  1.0 0.5781474663
C  C31  1  0.52390000  0.14140000  0.05350000  1.0 0.5781474663
C  C32  1  0.85860000  0.91210000  0.38250000  1.0 0.5781474663
C  C33  1  0.10190000  0.28330000  0.76000000  1.0 0.0789273879
C  C34  1  0.71670000  0.47670000  0.81860000  1.0 0.0789273879
C  C35  1  0.52330000  0.34190000  0.24000000  1.0 0.0789273879
C  C36  1  0.65810000  0.89810000  0.18140000  1.0 0.0789273879
C  C37  1  0.03580000  0.24440000  0.71340000  1.0 -0.1666232283
C  C38  1  0.75560000  0.46900000  0.79140000  1.0 -0.1666232283
C  C39  1  0.53100000  0.32240000  0.28660000  1.0 -0.1666232283
C  C40  1  0.67760000  0.96420000  0.20860000  1.0 -0.1666232283
C  C41  1  0.01880000  0.17530000  0.66650000  1.0 -0.0821142523
C  C42  1  0.82470000  0.49120000  0.84350000  1.0 -0.0821142523
C  C43  1  0.50880000  0.35230000  0.33350000  1.0 -0.0821142523
C  C44  1  0.64770000  0.98120000  0.15650000  1.0 -0.0821142523
C  C45  1  0.06640000  0.14830000  0.66910000  1.0 -0.0058591685
C  C46  1  0.85170000  0.52080000  0.91810000  1.0 -0.0058591685
C  C47  1  0.47920000  0.39730000  0.33090000  1.0 -0.0058591685
C  C48  1  0.60270000  0.93360000  0.08190000  1.0 -0.0058591685
C  C49  1  0.13090000  0.18550000  0.71500000  1.0 -0.0883286475
C  C50  1  0.81450000  0.52950000  0.94540000  1.0 -0.0883286475
C  C51  1  0.47050000  0.41590000  0.28500000  1.0 -0.0883286475
C  C52  1  0.58410000  0.86910000  0.05460000  1.0 -0.0883286475
C  C53  1  0.15180000  0.25700000  0.76340000  1.0 -0.1511354647
C  C54  1  0.74300000  0.50640000  0.89480000  1.0 -0.1511354647
C  C55  1  0.49360000  0.38840000  0.23660000  1.0 -0.1511354647
C  C56  1  0.61160000  0.84820000  0.10520000  1.0 -0.1511354647
C  C57  1  0.04590000  0.07290000  0.61520000  1.0 0.5461805118
C  C58  1  0.92710000  0.54230000  0.97300000  1.0 0.5461805118
C  C59  1  0.45770000  0.43070000  0.38480000  1.0 0.5461805118
C  C60  1  0.56930000  0.95410000  0.02700000  1.0 0.5461805118
C  C61  1  0.18280000  0.37780000  0.75620000  1.0 0.0789273879
C  C62  1  0.62220000  0.37840000  0.80500000  1.0 0.0789273879
C  C63  1  0.62160000  0.42660000  0.24380000  1.0 0.0789273879
C  C64  1  0.57340000  0.81720000  0.19500000  1.0 0.0789273879
C  C65  1  0.13240000  0.33300000  0.67920000  1.0 -0.1511354647
C  C66  1  0.66700000  0.34620000  0.79940000  1.0 -0.1511354647
C  C67  1  0.65380000  0.45320000  0.32080000  1.0 -0.1511354647
C  C68  1  0.54680000  0.86760000  0.20060000  1.0 -0.1511354647
C  C69  1  0.14830000  0.31200000  0.62750000  1.0 -0.0883286475
C  C70  1  0.68800000  0.31550000  0.83630000  1.0 -0.0883286475
C  C71  1  0.68450000  0.52080000  0.37250000  1.0 -0.0883286475
C  C72  1  0.47920000  0.85170000  0.16370000  1.0 -0.0883286475
C  C73  1  0.21380000  0.33490000  0.65130000  1.0 -0.0203101154
C  C74  1  0.66510000  0.31640000  0.87890000  1.0 -0.0203101154
C  C75  1  0.68360000  0.56250000  0.34870000  1.0 -0.0203101154
C  C76  1  0.43750000  0.78620000  0.12110000  1.0 -0.0203101154
C  C77  1  0.26240000  0.38100000  0.72520000  1.0 -0.0883286475
C  C78  1  0.61900000  0.34420000  0.88140000  1.0 -0.0883286475
C  C79  1  0.65580000  0.53720000  0.27480000  1.0 -0.0883286475
C  C80  1  0.46280000  0.73760000  0.11860000  1.0 -0.0883286475
C  C81  1  0.24710000  0.40200000  0.77890000  1.0 -0.1565406429
C  C82  1  0.59800000  0.37690000  0.84510000  1.0 -0.1565406429
C  C83  1  0.62310000  0.46820000  0.22110000  1.0 -0.1511354647
C  C84  1  0.53180000  0.75290000  0.15490000  1.0 -0.1511354647
C  C85  1  0.22870000  0.30940000  0.59170000  1.0 0.5929846344
C  C86  1  0.69060000  0.28230000  0.91930000  1.0 0.5929846344
C  C87  1  0.71770000  0.63700000  0.40830000  1.0 0.5929846344
C  C88  1  0.36300000  0.77130000  0.08070000  1.0 0.5929846344
C  C89  1  0.16116000  0.76006000  0.16790000  1.0 -0.0203101154
C  C90  1  0.23994000  0.40784000  0.40110000  1.0 -0.0203101154
C  C91  1  0.59216000  0.99326000  0.83210000  1.0 -0.0203101154
C  C92  1  0.00674000  0.83884000  0.59890000  1.0 -0.0203101154
C  C93  1  0.20315000  0.80895000  0.17700000  1.0 -0.0319505786
C  C94  1  0.19105000  0.36805000  0.39420000  1.0 -0.0319505786
C  C95  1  0.63195000  0.02615000  0.82300000  1.0 -0.0319505786
C  C96  1  0.97385000  0.79685000  0.60580000  1.0 -0.0319505786
C  C97  1  0.21501000  0.87551000  0.22470000  1.0 -0.1511354647
C  C98  1  0.12449000  0.34919000  0.33950000  1.0 -0.1511354647
C  C99  1  0.65081000  0.99031000  0.77530000  1.0 -0.1511354647
C  C100  1  0.00969000  0.78499000  0.66050000  1.0 -0.1511354647
C  C101  1  0.18390000  0.89340000  0.26150000  1.0 0.0230278369
C  C102  1  0.10660000  0.36810000  0.29050000  1.0 0.0230278369
C  C103  1  0.63190000  0.92240000  0.73850000  1.0 0.0230278369
C  C104  1  0.07760000  0.81610000  0.70950000  1.0 0.0230278369
C  C105  1  0.14180000  0.84570000  0.25430000  1.0 0.0230278369
C  C106  1  0.15430000  0.40860000  0.29610000  1.0 0.0230278369
C  C107  1  0.59140000  0.88750000  0.74570000  1.0 0.0230278369
C  C108  1  0.11250000  0.85820000  0.70390000  1.0 0.0230278369
C  C109  1  0.13030000  0.77930000  0.20720000  1.0 -0.1511354647
C  C110  1  0.22070000  0.42790000  0.35100000  1.0 -0.1511354647
C  C111  1  0.57210000  0.92310000  0.79280000  1.0 -0.1511354647
C  C112  1  0.07690000  0.86970000  0.64900000  1.0 -0.1511354647
C  C113  1  0.14597000  0.68807000  0.12290000  1.0 0.6086062444
C  C114  1  0.31193000  0.43483000  0.45790000  1.0 0.6086062444
C  C115  1  0.56517000  0.02307000  0.87710000  1.0 0.6086062444
C  C116  1  0.97693000  0.85403000  0.54210000  1.0 0.6086062444
C  C117  1  0.23155000  0.79055000  0.13180000  1.0 0.6018496754
C  C118  1  0.20945000  0.34125000  0.44100000  1.0 0.6018496754
C  C119  1  0.65875000  0.09975000  0.86820000  1.0 0.6018496754
C  C120  1  0.90025000  0.76845000  0.55900000  1.0 0.6018496754
C  C121  1  0.19250000  0.96580000  0.30330000  1.0 0.0789273879
C  C122  1  0.03420000  0.33750000  0.22670000  1.0 0.0789273879
C  C123  1  0.66250000  0.88920000  0.69670000  1.0 0.0789273879
C  C124  1  0.11080000  0.80750000  0.77330000  1.0 0.0789273879
C  C125  1  0.14000000  0.98550000  0.28790000  1.0 -0.1511354647
C  C126  1  0.01450000  0.30240000  0.15450000  1.0 -0.1511354647
C  C127  1  0.69760000  0.85210000  0.71210000  1.0 -0.1511354647
C  C128  1  0.14790000  0.86000000  0.84550000  1.0 -0.1511354647
C  C129  1  0.15010000  0.05230000  0.32540000  1.0 -0.0883286475
C  C130  1  0.94770000  0.27310000  0.09780000  1.0 -0.0883286475
C  C131  1  0.72690000  0.82470000  0.67460000  1.0 -0.0883286475
C  C132  1  0.17530000  0.84990000  0.90220000  1.0 -0.0883286475
C  C133  1  0.21350000  0.10030000  0.37920000  1.0 -0.0424428182
C  C134  1  0.89970000  0.27890000  0.11320000  1.0 -0.0424428182
C  C135  1  0.72110000  0.83430000  0.62080000  1.0 -0.0424428182
C  C136  1  0.16570000  0.78650000  0.88680000  1.0 -0.0424428182
C  C137  1  0.26770000  0.08090000  0.39720000  1.0 -0.0883286475
C  C138  1  0.91910000  0.31630000  0.18680000  1.0 -0.0883286475
C  C139  1  0.68370000  0.87050000  0.60280000  1.0 -0.0883286475
C  C140  1  0.12950000  0.73230000  0.81320000  1.0 -0.0883286475
C  C141  1  0.25730000  0.01330000  0.35900000  1.0 -0.1511354647
C  C142  1  0.98670000  0.34570000  0.24400000  1.0 -0.1511354647
C  C143  1  0.65430000  0.89830000  0.64100000  1.0 -0.1511354647
C  C144  1  0.10170000  0.74270000  0.75600000  1.0 -0.1511354647
C  C145  1  0.22270000  0.17190000  0.41720000  1.0 0.5929846344
C  C146  1  0.82810000  0.24530000  0.05080000  1.0 0.5929846344
C  C147  1  0.75470000  0.80550000  0.58280000  1.0 0.5929846344
C  C148  1  0.19450000  0.77730000  0.94920000  1.0 0.5929846344
C  C149  1  0.10771000  0.85871000  0.29320000  1.0 0.0789273879
C  C150  1  0.14129000  0.43449000  0.24900000  1.0 0.0789273879
C  C151  1  0.56551000  0.81451000  0.70680000  1.0 0.0789273879
C  C152  1  0.18549000  0.89229000  0.75100000  1.0 0.0789273879
C  C153  1  0.04250000  0.81640000  0.25210000  1.0 -0.1565406429
C  C154  1  0.18360000  0.43570000  0.22610000  1.0 -0.1565406429
C  C155  1  0.56430000  0.79040000  0.74790000  1.0 -0.1565406429
C  C156  1  0.20960000  0.95750000  0.77390000  1.0 -0.1565406429
C  C157  1  0.00990000  0.82190000  0.28780000  1.0 -0.0821142523
C  C158  1  0.17810000  0.46590000  0.18800000  1.0 -0.0821142523
C  C159  1  0.53410000  0.72210000  0.71220000  1.0 -0.0821142523
C  C160  1  0.27790000  0.99010000  0.81200000  1.0 -0.0821142523
C  C161  1  0.04360000  0.86860000  0.36380000  1.0 -0.0203101154
C  C162  1  0.13140000  0.49520000  0.17500000  1.0 -0.0203101154
C  C163  1  0.50480000  0.67980000  0.63620000  1.0 -0.0203101154
C  C164  1  0.32020000  0.95640000  0.82500000  1.0 -0.0203101154
C  C165  1  0.10860000  0.91140000  0.40460000  1.0 -0.0883286475
C  C166  1  0.08860000  0.49320000  0.19720000  1.0 -0.0883286475
C  C167  1  0.50680000  0.70400000  0.59540000  1.0 -0.0883286475
C  C168  1  0.29600000  0.89140000  0.80280000  1.0 -0.0883286475
C  C169  1  0.14040000  0.90650000  0.36910000  1.0 -0.1511354647
C  C170  1  0.09350000  0.46260000  0.23390000  1.0 -0.1511354647
C  C171  1  0.53740000  0.77130000  0.63090000  1.0 -0.1511354647
C  C172  1  0.22870000  0.85960000  0.76610000  1.0 -0.1511354647
C  C173  1  0.01030000  0.87170000  0.40300000  1.0 0.6018496754
C  C174  1  0.12830000  0.53130000  0.13860000  1.0 0.6018496754
C  C175  1  0.46870000  0.60730000  0.59700000  1.0 0.6018496754
C  C176  1  0.39270000  0.98970000  0.86140000  1.0 0.6018496754
O  O1  1  0.22837000  0.60007000  0.03050000  1.0 -0.5838215577
O  O2  1  0.39993000  0.43043000  0.62830000  1.0 -0.5838215577
O  O3  1  0.56957000  0.19787000  0.96950000  1.0 -0.5838215577
O  O4  1  0.80213000  0.77163000  0.37170000  1.0 -0.5838215577
O  O5  1  0.18130000  0.60120000  0.92982000  1.0 -0.4920961755
O  O6  1  0.39880000  0.32862000  0.58010000  1.0 -0.4920961755
O  O7  1  0.67138000  0.25148000  0.07018000  1.0 -0.4920961755
O  O8  1  0.74852000  0.81870000  0.41990000  1.0 -0.4920961755
O  O9  1  0.10809000  0.53344000  0.99575000  1.0 -0.6154338466
O  O10  1  0.46656000  0.46231000  0.57465000  1.0 -0.6154338466
O  O11  1  0.53769000  0.11234000  0.00425000  1.0 -0.6154338466
O  O12  1  0.88766000  0.89191000  0.42535000  1.0 -0.6154338466
O  O13  1  0.04574000  0.42847000  0.93513000  1.0 -0.4611651348
O  O14  1  0.57153000  0.50666000  0.61727000  1.0 -0.4611651348
O  O15  1  0.49334000  0.11061000  0.06487000  1.0 -0.4611651348
O  O16  1  0.88939000  0.95426000  0.38273000  1.0 -0.4611651348
O  O17  1  0.98600000  0.04200000  0.56640000  1.0 -0.4992074095
O  O18  1  0.95800000  0.52440000  0.94400000  1.0 -0.4992074095
O  O19  1  0.47560000  0.41960000  0.43360000  1.0 -0.4992074095
O  O20  1  0.58040000  0.01400000  0.05600000  1.0 -0.4992074095
O  O21  1  0.08870000  0.04820000  0.62390000  1.0 -0.4920961755
O  O22  1  0.95180000  0.57570000  0.04050000  1.0 -0.4920961755
O  O23  1  0.42430000  0.46480000  0.37610000  1.0 -0.4920961755
O  O24  1  0.53520000  0.91130000  0.95950000  1.0 -0.4920961755
O  O25  1  0.18640000  0.25811000  0.52891000  1.0 -0.5838215577
O  O26  1  0.74189000  0.27080000  0.92829000  1.0 -0.5838215577
O  O27  1  0.72920000  0.65749000  0.47109000  1.0 -0.5838215577
O  O28  1  0.34251000  0.81360000  0.07171000  1.0 -0.5838215577
O  O29  1  0.28407000  0.34059000  0.61012000  1.0 -0.5194593566
O  O30  1  0.65941000  0.26953000  0.94348000  1.0 -0.5194593566
O  O31  1  0.73047000  0.67395000  0.38988000  1.0 -0.5194593566
O  O32  1  0.32605000  0.71593000  0.05652000  1.0 -0.5194593566
O  O33  1  0.08646000  0.65362000  0.07796000  1.0 -0.4992074095
O  O34  1  0.34638000  0.42434000  0.43284000  1.0 -0.4992074095
O  O35  1  0.57566000  0.00850000  0.92204000  1.0 -0.4992074095
O  O36  1  0.99150000  0.91354000  0.56716000  1.0 -0.4992074095
O  O37  1  0.19427000  0.66845000  0.13926000  1.0 -0.564131354
O  O38  1  0.33155000  0.47081000  0.52582000  1.0 -0.564131354
O  O39  1  0.52919000  0.05501000  0.86074000  1.0 -0.564131354
O  O40  1  0.94499000  0.80573000  0.47418000  1.0 -0.564131354
O  O41  1  0.20205000  0.73580000  0.07173000  1.0 -0.4992074095
O  O42  1  0.26420000  0.33593000  0.46625000  1.0 -0.4992074095
O  O43  1  0.66407000  0.13032000  0.92827000  1.0 -0.4992074095
O  O44  1  0.86968000  0.79795000  0.53375000  1.0 -0.4992074095
O  O45  1  0.28506000  0.83334000  0.15796000  1.0 -0.6105580824
O  O46  1  0.16666000  0.32462000  0.45172000  1.0 -0.6105580824
O  O47  1  0.67538000  0.12710000  0.84204000  1.0 -0.6105580824
O  O48  1  0.87290000  0.71494000  0.54828000  1.0 -0.6105580824
O  O49  1  0.27901000  0.21140000  0.47379000  1.0 -0.5139132785
O  O50  1  0.78860000  0.26239000  0.06761000  1.0 -0.5139132785
O  O51  1  0.73761000  0.80522000  0.52621000  1.0 -0.5139132785
O  O52  1  0.19478000  0.72099000  0.93239000  1.0 -0.5139132785
O  O53  1  0.17534000  0.18808000  0.38874000  1.0 -0.5857465016
O  O54  1  0.81192000  0.20066000  0.98726000  1.0 -0.5857465016
O  O55  1  0.79934000  0.78660000  0.61126000  1.0 -0.5857465016
O  O56  1  0.21340000  0.82466000  0.01274000  1.0 -0.5857465016
O  O57  1  0.03158000  0.92580000  0.46442000  1.0 -0.5271019088
O  O58  1  0.07420000  0.53862000  0.10578000  1.0 -0.5271019088
O  O59  1  0.46138000  0.56716000  0.53558000  1.0 -0.5271019088
O  O60  1  0.43284000  0.96842000  0.89422000  1.0 -0.5271019088
O  O61  1  0.96163000  0.82016000  0.36793000  1.0 -0.5857465016
O  O62  1  0.17984000  0.54777000  0.14147000  1.0 -0.5838215577
O  O63  1  0.45223000  0.59370000  0.63207000  1.0 -0.5838215577
O  O64  1  0.40630000  0.03837000  0.85853000  1.0 -0.5857465016
