# DDEC6 charges by PACMAN v1.1 (https://github.com/mtap-research/PACMAN-charge/)
data_YOBYEV_ASR_pacman
_symmetry_space_group_name_H-M   'P 1'
_cell_length_a   24.51150000
_cell_length_b   24.51150000
_cell_length_c   24.51150000
_cell_angle_alpha   117.77800000
_cell_angle_beta   117.77800000
_cell_angle_gamma   93.89330000
_symmetry_Int_Tables_number   1
_chemical_formula_structural   Zn3CoH20(C11O4)4
_chemical_formula_sum   'Zn12 Co4 H80 C176 O64'
_cell_volume   10736.41549293
_cell_formula_units_Z   4
loop_
 _symmetry_equiv_pos_site_id
 _symmetry_equiv_pos_as_xyz
  1  'x, y, z'
loop_
 _atom_site_type_symbol
 _atom_site_label
 _atom_site_symmetry_multiplicity
 _atom_site_fract_x
 _atom_site_fract_y
 _atom_site_fract_z
 _atom_site_occupancy
 _atom_site_charge
Zn  Zn1  1  0.20944000  0.57994000  0.09384000  1.0 1.008977906
Zn  Zn2  1  0.42006000  0.51390000  0.62950000  1.0 1.008977906
Zn  Zn3  1  0.48610000  0.11560000  0.90616000  1.0 1.008977906
Zn  Zn4  1  0.88440000  0.79056000  0.37050000  1.0 1.008977906
Zn  Zn5  1  0.05037000  0.55764000  0.03091000  1.0 0.9308025848
Zn  Zn6  1  0.44236000  0.47327000  0.49273000  1.0 0.9308025848
Zn  Zn7  1  0.52673000  0.01946000  0.96909000  1.0 0.9308025848
Zn  Zn8  1  0.98054000  0.94963000  0.50727000  1.0 0.9308025848
Zn  Zn9  1  0.23050000  0.69733000  0.00461000  1.0 0.9308025848
Zn  Zn10  1  0.30267000  0.30728000  0.53317000  1.0 0.9308025848
Zn  Zn11  1  0.69272000  0.22589000  0.99539000  1.0 0.9308025848
Zn  Zn12  1  0.77411000  0.76950000  0.46683000  1.0 0.9308025848
Co  Co1  1  0.11938000  0.23077000  0.42013000  1.0 1.0587153595
Co  Co2  1  0.76923000  0.18936000  0.88861000  1.0 1.0587153595
Co  Co3  1  0.81064000  0.69925000  0.57987000  1.0 1.0587153595
Co  Co4  1  0.30075000  0.88062000  0.11139000  1.0 1.0587153595
H  H1  1  0.07100000  0.35240000  0.85100000  1.0 0.1214910347
H  H2  1  0.64760000  0.49860000  0.71860000  1.0 0.1214910347
H  H3  1  0.50140000  0.22000000  0.14900000  1.0 0.1214910347
H  H4  1  0.78000000  0.92900000  0.28140000  1.0 0.1214910347
H  H5  1  0.21500000  0.49840000  0.86480000  1.0 0.1214910347
H  H6  1  0.50160000  0.36640000  0.71660000  1.0 0.1214910347
H  H7  1  0.63360000  0.35020000  0.13520000  1.0 0.1214910347
H  H8  1  0.64980000  0.78500000  0.28340000  1.0 0.1214910347
H  H9  1  0.00190000  0.26120000  0.71170000  1.0 0.1214910347
H  H10  1  0.73880000  0.45050000  0.74070000  1.0 0.1214910347
H  H11  1  0.54950000  0.29020000  0.28830000  1.0 0.1214910347
H  H12  1  0.70980000  0.99810000  0.25930000  1.0 0.1214910347
H  H13  1  0.97170000  0.14590000  0.63180000  1.0 0.1214910347
H  H14  1  0.85410000  0.48590000  0.82580000  1.0 0.1214910347
H  H15  1  0.51410000  0.33990000  0.36820000  1.0 0.1214910347
H  H16  1  0.66010000  0.02830000  0.17420000  1.0 0.1214910347
H  H17  1  0.16220000  0.16510000  0.71410000  1.0 0.1283972356
H  H18  1  0.83490000  0.54900000  0.99710000  1.0 0.1283972356
H  H19  1  0.45100000  0.44810000  0.28590000  1.0 0.1283972356
H  H20  1  0.55190000  0.83780000  0.00290000  1.0 0.1283972356
H  H21  1  0.19560000  0.28320000  0.79420000  1.0 0.1129055109
H  H22  1  0.71680000  0.51100000  0.91240000  1.0 0.1129055109
H  H23  1  0.48900000  0.40140000  0.20580000  1.0 0.1129055109
H  H24  1  0.59860000  0.80440000  0.08760000  1.0 0.1129055109
H  H25  1  0.08700000  0.31760000  0.66220000  1.0 0.1214910347
H  H26  1  0.68240000  0.34460000  0.76940000  1.0 0.1214910347
H  H27  1  0.65540000  0.42480000  0.33780000  1.0 0.1214910347
H  H28  1  0.57520000  0.91300000  0.23060000  1.0 0.1214910347
H  H29  1  0.11320000  0.28070000  0.57430000  1.0 0.1214910347
H  H30  1  0.71930000  0.29360000  0.83250000  1.0 0.1214910347
H  H31  1  0.70640000  0.53890000  0.42570000  1.0 0.1214910347
H  H32  1  0.46110000  0.88680000  0.16750000  1.0 0.1214910347
H  H33  1  0.30560000  0.39650000  0.73830000  1.0 0.1283972356
H  H34  1  0.60350000  0.34180000  0.90910000  1.0 0.1283972356
H  H35  1  0.65820000  0.56730000  0.26170000  1.0 0.1283972356
H  H36  1  0.43270000  0.69440000  0.09090000  1.0 0.1283972356
H  H37  1  0.28150000  0.42920000  0.82870000  1.0 0.1214910347
H  H38  1  0.57080000  0.39950000  0.85230000  1.0 0.1214910347
H  H39  1  0.60050000  0.45280000  0.17130000  1.0 0.1214910347
H  H40  1  0.54720000  0.71850000  0.14770000  1.0 0.1214910347
H  H41  1  0.24550000  0.90780000  0.23170000  1.0 0.1214910347
H  H42  1  0.09220000  0.32390000  0.33770000  1.0 0.1214910347
H  H43  1  0.67610000  0.01380000  0.76830000  1.0 0.1214910347
H  H44  1  0.98620000  0.75450000  0.66230000  1.0 0.1214910347
H  H45  1  0.10690000  0.74560000  0.20590000  1.0 0.1283972356
H  H46  1  0.25440000  0.46030000  0.36130000  1.0 0.1283972356
H  H47  1  0.53970000  0.90100000  0.79410000  1.0 0.1283972356
H  H48  1  0.09900000  0.89310000  0.63870000  1.0 0.1283972356
H  H49  1  0.09840000  0.95400000  0.25580000  1.0 0.1214910347
H  H50  1  0.04600000  0.30180000  0.14440000  1.0 0.1214910347
H  H51  1  0.69820000  0.84260000  0.74420000  1.0 0.1214910347
H  H52  1  0.15740000  0.90160000  0.85560000  1.0 0.1214910347
H  H53  1  0.11590000  0.06550000  0.31600000  1.0 0.1214910347
H  H54  1  0.93450000  0.25050000  0.05040000  1.0 0.1214910347
H  H55  1  0.74950000  0.79990000  0.68400000  1.0 0.1214910347
H  H56  1  0.20010000  0.88410000  0.94960000  1.0 0.1214910347
H  H57  1  0.31320000  0.11200000  0.43540000  1.0 0.1283972356
H  H58  1  0.88800000  0.32340000  0.20120000  1.0 0.1283972356
H  H59  1  0.67660000  0.87780000  0.56460000  1.0 0.1283972356
H  H60  1  0.12220000  0.68680000  0.79880000  1.0 0.1283972356
H  H61  1  0.29770000  0.99970000  0.37000000  1.0 0.1214910347
H  H62  1  0.00030000  0.37030000  0.29800000  1.0 0.1214910347
H  H63  1  0.62970000  0.92770000  0.63000000  1.0 0.1214910347
H  H64  1  0.07230000  0.70230000  0.70200000  1.0 0.1214910347
H  H65  1  0.02450000  0.78180000  0.20310000  1.0 0.1214910347
H  H66  1  0.21820000  0.42130000  0.24270000  1.0 0.1214910347
H  H67  1  0.57870000  0.82140000  0.79690000  1.0 0.1214910347
H  H68  1  0.17860000  0.97550000  0.75730000  1.0 0.1214910347
H  H69  1  0.96750000  0.79210000  0.26020000  1.0 0.1214910347
H  H70  1  0.20790000  0.46810000  0.17540000  1.0 0.1214910347
H  H71  1  0.53190000  0.70730000  0.73980000  1.0 0.1214910347
H  H72  1  0.29270000  0.03250000  0.82460000  1.0 0.1214910347
H  H73  1  0.13270000  0.94520000  0.45790000  1.0 0.1283972356
H  H74  1  0.05480000  0.51270000  0.18750000  1.0 0.1283972356
H  H75  1  0.48730000  0.67480000  0.54210000  1.0 0.1283972356
H  H76  1  0.32520000  0.86730000  0.81250000  1.0 0.1283972356
H  H77  1  0.18670000  0.93580000  0.39910000  1.0 0.1129055109
H  H78  1  0.06420000  0.46330000  0.25090000  1.0 0.1129055109
H  H79  1  0.53670000  0.78760000  0.60090000  1.0 0.1129055109
H  H80  1  0.21240000  0.81330000  0.74910000  1.0 0.1129055109
C  C1  1  0.16290000  0.49450000  0.90760000  1.0 -0.0268438431
C  C2  1  0.50550000  0.41310000  0.66840000  1.0 -0.0268438431
C  C3  1  0.58690000  0.25530000  0.09240000  1.0 -0.0268438431
C  C4  1  0.74470000  0.83710000  0.33160000  1.0 -0.0268438431
C  C5  1  0.11827000  0.45047000  0.90300000  1.0 -0.0588262256
C  C6  1  0.54953000  0.45253000  0.66780000  1.0 -0.0588262256
C  C7  1  0.54747000  0.21527000  0.09700000  1.0 -0.0588262256
C  C8  1  0.78473000  0.88173000  0.33220000  1.0 -0.0588262256
C  C9  1  0.09992000  0.38242000  0.85330000  1.0 -0.1384761025
C  C10  1  0.61758000  0.47088000  0.71750000  1.0 -0.1384761025
C  C11  1  0.52912000  0.24662000  0.14670000  1.0 -0.1384761025
C  C12  1  0.75338000  0.90008000  0.28250000  1.0 -0.1384761025
C  C13  1  0.12236000  0.35656000  0.80680000  1.0 0.0219685274
C  C14  1  0.64344000  0.45024000  0.76580000  1.0 0.0219685274
C  C15  1  0.54976000  0.31556000  0.19320000  1.0 0.0219685274
C  C16  1  0.68444000  0.87764000  0.23420000  1.0 0.0219685274
C  C17  1  0.16370000  0.40030000  0.80860000  1.0 0.02675543
C  C18  1  0.59970000  0.40830000  0.76340000  1.0 0.02675543
C  C19  1  0.59170000  0.35510000  0.19140000  1.0 0.02675543
C  C20  1  0.64490000  0.83630000  0.23660000  1.0 0.02675543
C  C21  1  0.18452000  0.46852000  0.86100000  1.0 -0.1593912829
C  C22  1  0.53148000  0.39248000  0.71600000  1.0 -0.1593912829
C  C23  1  0.60752000  0.32352000  0.13900000  1.0 -0.1593912829
C  C24  1  0.67648000  0.81548000  0.28400000  1.0 -0.1593912829
C  C25  1  0.19185000  0.56835000  0.95970000  1.0 0.5976435032
C  C26  1  0.43165000  0.39135000  0.62350000  1.0 0.5976435032
C  C27  1  0.60865000  0.23215000  0.04030000  1.0 0.5976435032
C  C28  1  0.76785000  0.80815000  0.37650000  1.0 0.5976435032
C  C29  1  0.08928000  0.46928000  0.94660000  1.0 0.5660832684
C  C30  1  0.53072000  0.47732000  0.62000000  1.0 0.5660832684
C  C31  1  0.52268000  0.14268000  0.05340000  1.0 0.5660832684
C  C32  1  0.85732000  0.91072000  0.38000000  1.0 0.5660832684
C  C33  1  0.10180000  0.28300000  0.75920000  1.0 0.0769789901
C  C34  1  0.71700000  0.47620000  0.81880000  1.0 0.0769789901
C  C35  1  0.52380000  0.34260000  0.24080000  1.0 0.0769789901
C  C36  1  0.65740000  0.89820000  0.18120000  1.0 0.0769789901
C  C37  1  0.03480000  0.24260000  0.71200000  1.0 -0.1593912829
C  C38  1  0.75740000  0.46940000  0.79220000  1.0 -0.1593912829
C  C39  1  0.53060000  0.32280000  0.28800000  1.0 -0.1593912829
C  C40  1  0.67720000  0.96520000  0.20780000  1.0 -0.1593912829
C  C41  1  0.01710000  0.17370000  0.66500000  1.0 -0.0842350244
C  C42  1  0.82630000  0.49130000  0.84340000  1.0 -0.0842350244
C  C43  1  0.50870000  0.35210000  0.33500000  1.0 -0.0842350244
C  C44  1  0.64790000  0.98290000  0.15660000  1.0 -0.0842350244
C  C45  1  0.06410000  0.14630000  0.66640000  1.0 -0.011887109
C  C46  1  0.85370000  0.52010000  0.91780000  1.0 -0.011887109
C  C47  1  0.47990000  0.39770000  0.33360000  1.0 -0.011887109
C  C48  1  0.60230000  0.93590000  0.08220000  1.0 -0.011887109
C  C49  1  0.13010000  0.18490000  0.71340000  1.0 -0.0894944934
C  C50  1  0.81510000  0.52850000  0.94520000  1.0 -0.0894944934
C  C51  1  0.47150000  0.41670000  0.28660000  1.0 -0.0894944934
C  C52  1  0.58330000  0.86990000  0.05480000  1.0 -0.0894944934
C  C53  1  0.15020000  0.25570000  0.76150000  1.0 -0.1593912829
C  C54  1  0.74430000  0.50580000  0.89450000  1.0 -0.1593912829
C  C55  1  0.49420000  0.38870000  0.23850000  1.0 -0.1593912829
C  C56  1  0.61130000  0.84980000  0.10550000  1.0 -0.1593912829
C  C57  1  0.04350000  0.07220000  0.61310000  1.0 0.5435621451
C  C58  1  0.92780000  0.54090000  0.97130000  1.0 0.5435621451
C  C59  1  0.45910000  0.43040000  0.38690000  1.0 0.5435621451
C  C60  1  0.56960000  0.95650000  0.02870000  1.0 0.5435621451
C  C61  1  0.18233000  0.37763000  0.75490000  1.0 0.0769789901
C  C62  1  0.62237000  0.37727000  0.80470000  1.0 0.0769789901
C  C63  1  0.62273000  0.42743000  0.24510000  1.0 0.0769789901
C  C64  1  0.57257000  0.81767000  0.19530000  1.0 0.0769789901
C  C65  1  0.13160000  0.33270000  0.67790000  1.0 -0.1507714857
C  C66  1  0.66730000  0.34520000  0.79890000  1.0 -0.1507714857
C  C67  1  0.65480000  0.45370000  0.32210000  1.0 -0.1507714857
C  C68  1  0.54630000  0.86840000  0.20110000  1.0 -0.1507714857
C  C69  1  0.14700000  0.31080000  0.62580000  1.0 -0.0894944934
C  C70  1  0.68920000  0.31500000  0.83620000  1.0 -0.0894944934
C  C71  1  0.68500000  0.52120000  0.37420000  1.0 -0.0894944934
C  C72  1  0.47880000  0.85300000  0.16380000  1.0 -0.0894944934
C  C73  1  0.21227000  0.33307000  0.64900000  1.0 -0.0223115591
C  C74  1  0.66693000  0.31593000  0.87920000  1.0 -0.0223115591
C  C75  1  0.68407000  0.56327000  0.35100000  1.0 -0.0223115591
C  C76  1  0.43673000  0.78773000  0.12080000  1.0 -0.0223115591
C  C77  1  0.26170000  0.37900000  0.72350000  1.0 -0.0894944934
C  C78  1  0.62100000  0.34450000  0.88270000  1.0 -0.0894944934
C  C79  1  0.65550000  0.53820000  0.27650000  1.0 -0.0894944934
C  C80  1  0.46180000  0.73830000  0.11730000  1.0 -0.0894944934
C  C81  1  0.24710000  0.39990000  0.77720000  1.0 -0.1593912829
C  C82  1  0.60010000  0.37730000  0.84720000  1.0 -0.1593912829
C  C83  1  0.62270000  0.46990000  0.22280000  1.0 -0.1593912829
C  C84  1  0.53010000  0.75290000  0.15280000  1.0 -0.1593912829
C  C85  1  0.22800000  0.30710000  0.59010000  1.0 0.5929406669
C  C86  1  0.69290000  0.28300000  0.92090000  1.0 0.5929406669
C  C87  1  0.71700000  0.63790000  0.40990000  1.0 0.5929406669
C  C88  1  0.36210000  0.77200000  0.07910000  1.0 0.5929406669
C  C89  1  0.16322000  0.75992000  0.16910000  1.0 -0.0223115591
C  C90  1  0.24008000  0.40918000  0.40330000  1.0 -0.0223115591
C  C91  1  0.59082000  0.99412000  0.83090000  1.0 -0.0223115591
C  C92  1  0.00588000  0.83678000  0.59670000  1.0 -0.0223115591
C  C93  1  0.20436000  0.80916000  0.17780000  1.0 -0.0268438431
C  C94  1  0.19084000  0.36864000  0.39520000  1.0 -0.0268438431
C  C95  1  0.63136000  0.02656000  0.82220000  1.0 -0.0268438431
C  C96  1  0.97344000  0.79564000  0.60480000  1.0 -0.0268438431
C  C97  1  0.21614000  0.87464000  0.22530000  1.0 -0.1507714857
C  C98  1  0.12536000  0.35066000  0.34150000  1.0 -0.1507714857
C  C99  1  0.64934000  0.99084000  0.77470000  1.0 -0.1507714857
C  C100  1  0.00916000  0.78386000  0.65850000  1.0 -0.1507714857
C  C101  1  0.18685000  0.89355000  0.26390000  1.0 0.0219685274
C  C102  1  0.10645000  0.37035000  0.29330000  1.0 0.0219685274
C  C103  1  0.62965000  0.92295000  0.73610000  1.0 0.0219685274
C  C104  1  0.07705000  0.81315000  0.70670000  1.0 0.0219685274
C  C105  1  0.14320000  0.84550000  0.25630000  1.0 0.02675543
C  C106  1  0.15450000  0.41080000  0.29770000  1.0 0.02675543
C  C107  1  0.58920000  0.88690000  0.74370000  1.0 0.02675543
C  C108  1  0.11310000  0.85680000  0.70230000  1.0 0.02675543
C  C109  1  0.13380000  0.77900000  0.21000000  1.0 -0.1593912829
C  C110  1  0.22100000  0.43100000  0.35480000  1.0 -0.1593912829
C  C111  1  0.56900000  0.92380000  0.79000000  1.0 -0.1593912829
C  C112  1  0.07620000  0.86620000  0.64520000  1.0 -0.1593912829
C  C113  1  0.14703000  0.68779000  0.12336000  1.0 0.6082278948
C  C114  1  0.31221000  0.43557000  0.45924000  1.0 0.6082278948
C  C115  1  0.56443000  0.02367000  0.87664000  1.0 0.6082278948
C  C116  1  0.97633000  0.85297000  0.54076000  1.0 0.6082278948
C  C117  1  0.23245000  0.79069000  0.13164000  1.0 0.6082278948
C  C118  1  0.20931000  0.34095000  0.44176000  1.0 0.6082278948
C  C119  1  0.65905000  0.10081000  0.86836000  1.0 0.6082278948
C  C120  1  0.89919000  0.76755000  0.55824000  1.0 0.6082278948
C  C121  1  0.19555000  0.96555000  0.30600000  1.0 0.0852353509
C  C122  1  0.03445000  0.34045000  0.23000000  1.0 0.0852353509
C  C123  1  0.65955000  0.88955000  0.69400000  1.0 0.0852353509
C  C124  1  0.11045000  0.80445000  0.77000000  1.0 0.0852353509
C  C125  1  0.14230000  0.98580000  0.29110000  1.0 -0.1507714857
C  C126  1  0.01420000  0.30530000  0.15650000  1.0 -0.1507714857
C  C127  1  0.69470000  0.85120000  0.70890000  1.0 -0.1507714857
C  C128  1  0.14880000  0.85770000  0.84350000  1.0 -0.1507714857
C  C129  1  0.15289000  0.05189000  0.32720000  1.0 -0.0894944934
C  C130  1  0.94811000  0.27531000  0.10100000  1.0 -0.0894944934
C  C131  1  0.72469000  0.82569000  0.67280000  1.0 -0.0894944934
C  C132  1  0.17431000  0.84711000  0.89900000  1.0 -0.0894944934
C  C133  1  0.21605000  0.09945000  0.37960000  1.0 -0.0372704294
C  C134  1  0.90055000  0.28015000  0.11660000  1.0 -0.0372704294
C  C135  1  0.71985000  0.83645000  0.62040000  1.0 -0.0372704294
C  C136  1  0.16355000  0.78395000  0.88340000  1.0 -0.0372704294
C  C137  1  0.26980000  0.07970000  0.39730000  1.0 -0.0894944934
C  C138  1  0.92030000  0.31760000  0.19010000  1.0 -0.0894944934
C  C139  1  0.68240000  0.87250000  0.60270000  1.0 -0.0894944934
C  C140  1  0.12750000  0.73020000  0.80990000  1.0 -0.0894944934
C  C141  1  0.26070000  0.01330000  0.35980000  1.0 -0.1593912829
C  C142  1  0.98670000  0.34650000  0.24740000  1.0 -0.1593912829
C  C143  1  0.65350000  0.90090000  0.64020000  1.0 -0.1593912829
C  C144  1  0.09910000  0.73930000  0.75260000  1.0 -0.1593912829
C  C145  1  0.22513000  0.17123000  0.41770000  1.0 0.5929406669
C  C146  1  0.82877000  0.24647000  0.05390000  1.0 0.5929406669
C  C147  1  0.75353000  0.80743000  0.58230000  1.0 0.5929406669
C  C148  1  0.19257000  0.77487000  0.94610000  1.0 0.5929406669
C  C149  1  0.11036000  0.85826000  0.29570000  1.0 0.0686934378
C  C150  1  0.14174000  0.43744000  0.25210000  1.0 0.0686934378
C  C151  1  0.56256000  0.81466000  0.70430000  1.0 0.0686934378
C  C152  1  0.18534000  0.88964000  0.74790000  1.0 0.0686934378
C  C153  1  0.04590000  0.81520000  0.25470000  1.0 -0.1507714857
C  C154  1  0.18480000  0.43950000  0.23070000  1.0 -0.1507714857
C  C155  1  0.56050000  0.79120000  0.74530000  1.0 -0.1507714857
C  C156  1  0.20880000  0.95410000  0.76930000  1.0 -0.1507714857
C  C157  1  0.01221000  0.82061000  0.28880000  1.0 -0.0894944934
C  C158  1  0.17939000  0.46819000  0.19160000  1.0 -0.0894944934
C  C159  1  0.53181000  0.72341000  0.71120000  1.0 -0.0894944934
C  C160  1  0.27659000  0.98779000  0.80840000  1.0 -0.0894944934
C  C161  1  0.04497000  0.86837000  0.36540000  1.0 -0.0268438431
C  C162  1  0.13163000  0.49703000  0.17660000  1.0 -0.0268438431
C  C163  1  0.50297000  0.67957000  0.63460000  1.0 -0.0223115591
C  C164  1  0.32043000  0.95503000  0.82340000  1.0 -0.0268438431
C  C165  1  0.11060000  0.91200000  0.40620000  1.0 -0.0894944934
C  C166  1  0.08800000  0.49420000  0.19860000  1.0 -0.0894944934
C  C167  1  0.50580000  0.70440000  0.59380000  1.0 -0.0894944934
C  C168  1  0.29560000  0.88940000  0.80140000  1.0 -0.0894944934
C  C169  1  0.14250000  0.90640000  0.37130000  1.0 -0.1507714857
C  C170  1  0.09360000  0.46490000  0.23610000  1.0 -0.1507714857
C  C171  1  0.53510000  0.77120000  0.62870000  1.0 -0.1507714857
C  C172  1  0.22880000  0.85750000  0.76390000  1.0 -0.1507714857
C  C173  1  0.01023000  0.87093000  0.40230000  1.0 0.5976435032
C  C174  1  0.12907000  0.53137000  0.13930000  1.0 0.5976435032
C  C175  1  0.46863000  0.60793000  0.59770000  1.0 0.5976435032
C  C176  1  0.39207000  0.98977000  0.86070000  1.0 0.5976435032
O  O1  1  0.22861000  0.59876000  0.02933000  1.0 -0.5576301728
O  O2  1  0.40124000  0.43057000  0.62985000  1.0 -0.5576301728
O  O3  1  0.56943000  0.19928000  0.97067000  1.0 -0.5576301728
O  O4  1  0.80072000  0.77139000  0.37015000  1.0 -0.5576301728
O  O5  1  0.18104000  0.59987000  0.92891000  1.0 -0.4956952471
O  O6  1  0.40013000  0.32904000  0.58117000  1.0 -0.4956952471
O  O7  1  0.67096000  0.25213000  0.07109000  1.0 -0.4956952471
O  O8  1  0.74787000  0.81896000  0.41883000  1.0 -0.4956952471
O  O9  1  0.10870000  0.53277000  0.99515000  1.0 -0.6119805663
O  O10  1  0.46723000  0.46238000  0.57593000  1.0 -0.6119805663
O  O11  1  0.53762000  0.11355000  0.00485000  1.0 -0.6119805663
O  O12  1  0.88645000  0.89130000  0.42407000  1.0 -0.6119805663
O  O13  1  0.04650000  0.42718000  0.93468000  1.0 -0.4669938747
O  O14  1  0.57282000  0.50750000  0.61932000  1.0 -0.4669938747
O  O15  1  0.49250000  0.11182000  0.06532000  1.0 -0.4669938747
O  O16  1  0.88818000  0.95350000  0.38068000  1.0 -0.4669938747
O  O17  1  0.98350000  0.04110000  0.56480000  1.0 -0.5110915262
O  O18  1  0.95890000  0.52370000  0.94240000  1.0 -0.5110915262
O  O19  1  0.47630000  0.41870000  0.43520000  1.0 -0.5110915262
O  O20  1  0.58130000  0.01650000  0.05760000  1.0 -0.5110915262
O  O21  1  0.08800000  0.04700000  0.62400000  1.0 -0.527127846
O  O22  1  0.95300000  0.57700000  0.04100000  1.0 -0.527127846
O  O23  1  0.42300000  0.46400000  0.37600000  1.0 -0.527127846
O  O24  1  0.53600000  0.91200000  0.95900000  1.0 -0.527127846
O  O25  1  0.18536000  0.25586000  0.52798000  1.0 -0.6009686429
O  O26  1  0.74414000  0.27212000  0.92950000  1.0 -0.6009686429
O  O27  1  0.72788000  0.65738000  0.47202000  1.0 -0.6009686429
O  O28  1  0.34262000  0.81464000  0.07050000  1.0 -0.6009686429
O  O29  1  0.28277000  0.33860000  0.60843000  1.0 -0.5110915262
O  O30  1  0.66140000  0.26983000  0.94417000  1.0 -0.5110915262
O  O31  1  0.73017000  0.67434000  0.39157000  1.0 -0.5110915262
O  O32  1  0.32566000  0.71723000  0.05583000  1.0 -0.5110915262
O  O33  1  0.08679000  0.65277000  0.07676000  1.0 -0.5110915262
O  O34  1  0.34723000  0.42399000  0.43402000  1.0 -0.5110915262
O  O35  1  0.57601000  0.01003000  0.92324000  1.0 -0.5110915262
O  O36  1  0.98997000  0.91321000  0.56598000  1.0 -0.5110915262
O  O37  1  0.19478000  0.66801000  0.13919000  1.0 -0.5576301728
O  O38  1  0.33199000  0.47118000  0.52677000  1.0 -0.5576301728
O  O39  1  0.52882000  0.05559000  0.86081000  1.0 -0.5576301728
O  O40  1  0.94441000  0.80522000  0.47323000  1.0 -0.5576301728
O  O41  1  0.20075000  0.73442000  0.07029000  1.0 -0.5110915262
O  O42  1  0.26558000  0.33587000  0.46633000  1.0 -0.5110915262
O  O43  1  0.66413000  0.13046000  0.92971000  1.0 -0.5110915262
O  O44  1  0.86954000  0.79925000  0.53367000  1.0 -0.5110915262
O  O45  1  0.28407000  0.83265000  0.15600000  1.0 -0.6119805663
O  O46  1  0.16735000  0.32335000  0.45142000  1.0 -0.6119805663
O  O47  1  0.67665000  0.12807000  0.84400000  1.0 -0.6119805663
O  O48  1  0.87193000  0.71593000  0.54858000  1.0 -0.6119805663
O  O49  1  0.28164000  0.21082000  0.47418000  1.0 -0.5110915262
O  O50  1  0.78918000  0.26336000  0.07082000  1.0 -0.5110915262
O  O51  1  0.73664000  0.80746000  0.52582000  1.0 -0.5110915262
O  O52  1  0.19254000  0.71836000  0.92918000  1.0 -0.5110915262
O  O53  1  0.17772000  0.18696000  0.38824000  1.0 -0.6119805663
O  O54  1  0.81304000  0.20128000  0.99076000  1.0 -0.6119805663
O  O55  1  0.79872000  0.78948000  0.61176000  1.0 -0.6119805663
O  O56  1  0.21052000  0.82228000  0.00924000  1.0 -0.6119805663
O  O57  1  0.03182000  0.92459000  0.46383000  1.0 -0.527127846
O  O58  1  0.07541000  0.53924000  0.10723000  1.0 -0.527127846
O  O59  1  0.46076000  0.56799000  0.53617000  1.0 -0.527127846
O  O60  1  0.43201000  0.96818000  0.89277000  1.0 -0.527127846
O  O61  1  0.96128000  0.82014000  0.36686000  1.0 -0.5731271345
O  O62  1  0.17986000  0.54672000  0.14114000  1.0 -0.5731271345
O  O63  1  0.45328000  0.59442000  0.63314000  1.0 -0.5731271345
O  O64  1  0.40558000  0.03872000  0.85886000  1.0 -0.5731271345
