# DDEC6 charges by PACMAN v1.1 (https://github.com/mtap-research/PACMAN-charge/)
data_YOCDUR_ASR_pacman
_symmetry_space_group_name_H-M   'P 1'
_cell_length_a   24.48780000
_cell_length_b   24.48780000
_cell_length_c   24.48780000
_cell_angle_alpha   117.64000000
_cell_angle_beta   117.64000000
_cell_angle_gamma   94.13840000
_symmetry_Int_Tables_number   1
_chemical_formula_structural   ZnH5C11O4
_chemical_formula_sum   'Zn16 H80 C176 O64'
_cell_volume   10723.42303850
_cell_formula_units_Z   16
loop_
 _symmetry_equiv_pos_site_id
 _symmetry_equiv_pos_as_xyz
  1  'x, y, z'
loop_
 _atom_site_type_symbol
 _atom_site_label
 _atom_site_symmetry_multiplicity
 _atom_site_fract_x
 _atom_site_fract_y
 _atom_site_fract_z
 _atom_site_occupancy
 _atom_site_charge
Zn  Zn1  1  0.20963000  0.58066000  0.09475000  1.0 1.0095046607
Zn  Zn2  1  0.48591000  0.11488000  0.90525000  1.0 1.0095046607
Zn  Zn3  1  0.41934000  0.51409000  0.62897000  1.0 1.0095046607
Zn  Zn4  1  0.88512000  0.79037000  0.37103000  1.0 1.0095046607
Zn  Zn5  1  0.05021000  0.55811000  0.03098000  1.0 0.9281459598
Zn  Zn6  1  0.52713000  0.01923000  0.96902000  1.0 0.9281459598
Zn  Zn7  1  0.44189000  0.47287000  0.49210000  1.0 0.9281459598
Zn  Zn8  1  0.98077000  0.94979000  0.50790000  1.0 0.9281459598
Zn  Zn9  1  0.23112000  0.69762000  0.00536000  1.0 0.9281459598
Zn  Zn10  1  0.69226000  0.22576000  0.99464000  1.0 0.9281459598
Zn  Zn11  1  0.30238000  0.30774000  0.53350000  1.0 0.924812719
Zn  Zn12  1  0.77424000  0.76888000  0.46650000  1.0 0.924812719
Zn  Zn13  1  0.11905000  0.23122000  0.42055000  1.0 1.0180929152
Zn  Zn14  1  0.81067000  0.69850000  0.57945000  1.0 1.0180929152
Zn  Zn15  1  0.76878000  0.18933000  0.88783000  1.0 1.0180929152
Zn  Zn16  1  0.30150000  0.88095000  0.11217000  1.0 1.0180929152
H  H1  1  0.07160000  0.35310000  0.85190000  1.0 0.1207311631
H  H2  1  0.50120000  0.21970000  0.14810000  1.0 0.1207311631
H  H3  1  0.64690000  0.49880000  0.71850000  1.0 0.1207311631
H  H4  1  0.78030000  0.92840000  0.28150000  1.0 0.1207311631
H  H5  1  0.21300000  0.49740000  0.86320000  1.0 0.1207311631
H  H6  1  0.63420000  0.34980000  0.13680000  1.0 0.1207311631
H  H7  1  0.50260000  0.36580000  0.71560000  1.0 0.1207311631
H  H8  1  0.65020000  0.78700000  0.28440000  1.0 0.1207311631
H  H9  1  0.00230000  0.26060000  0.71230000  1.0 0.1207311631
H  H10  1  0.54830000  0.29000000  0.28770000  1.0 0.1207311631
H  H11  1  0.73940000  0.45170000  0.74170000  1.0 0.1207311631
H  H12  1  0.71000000  0.99770000  0.25830000  1.0 0.1207311631
H  H13  1  0.97280000  0.14680000  0.63360000  1.0 0.1207311631
H  H14  1  0.51320000  0.33920000  0.36640000  1.0 0.1207311631
H  H15  1  0.85320000  0.48680000  0.82600000  1.0 0.1207311631
H  H16  1  0.66080000  0.02720000  0.17400000  1.0 0.1207311631
H  H17  1  0.16150000  0.16510000  0.71460000  1.0 0.1207311631
H  H18  1  0.45050000  0.44690000  0.28540000  1.0 0.1207311631
H  H19  1  0.83490000  0.54950000  0.99640000  1.0 0.1207311631
H  H20  1  0.55310000  0.83850000  0.00360000  1.0 0.1207311631
H  H21  1  0.19610000  0.28260000  0.79510000  1.0 0.111718022
H  H22  1  0.48750000  0.40100000  0.20490000  1.0 0.111718022
H  H23  1  0.71740000  0.51250000  0.91350000  1.0 0.111718022
H  H24  1  0.59900000  0.80390000  0.08650000  1.0 0.111718022
H  H25  1  0.08810000  0.31810000  0.66240000  1.0 0.1207311631
H  H26  1  0.65570000  0.42570000  0.33760000  1.0 0.1207311631
H  H27  1  0.68190000  0.34430000  0.77000000  1.0 0.1207311631
H  H28  1  0.57430000  0.91190000  0.23000000  1.0 0.1207311631
H  H29  1  0.11380000  0.28260000  0.57620000  1.0 0.1207311631
H  H30  1  0.70640000  0.53760000  0.42380000  1.0 0.1207311631
H  H31  1  0.71740000  0.29360000  0.83120000  1.0 0.1207311631
H  H32  1  0.46240000  0.88620000  0.16880000  1.0 0.1207311631
H  H33  1  0.30400000  0.39590000  0.73630000  1.0 0.1278162079
H  H34  1  0.65960000  0.56770000  0.26370000  1.0 0.1278162079
H  H35  1  0.60410000  0.34040000  0.90810000  1.0 0.1278162079
H  H36  1  0.43230000  0.69600000  0.09190000  1.0 0.1278162079
H  H37  1  0.28210000  0.42930000  0.82840000  1.0 0.1207311631
H  H38  1  0.60090000  0.45370000  0.17160000  1.0 0.1207311631
H  H39  1  0.57070000  0.39910000  0.85280000  1.0 0.1207311631
H  H40  1  0.54630000  0.71790000  0.14720000  1.0 0.1207311631
H  H41  1  0.24360000  0.90790000  0.23010000  1.0 0.1207311631
H  H42  1  0.67780000  0.01350000  0.76990000  1.0 0.1207311631
H  H43  1  0.09210000  0.32220000  0.33570000  1.0 0.1207311631
H  H44  1  0.98650000  0.75640000  0.66430000  1.0 0.1207311631
H  H45  1  0.10760000  0.74750000  0.20670000  1.0 0.1278162079
H  H46  1  0.54080000  0.90090000  0.79330000  1.0 0.1278162079
H  H47  1  0.25250000  0.45920000  0.36010000  1.0 0.1278162079
H  H48  1  0.09910000  0.89240000  0.63990000  1.0 0.1278162079
H  H49  1  0.09930000  0.95470000  0.25660000  1.0 0.1207311631
H  H50  1  0.69810000  0.84270000  0.74340000  1.0 0.1207311631
H  H51  1  0.04530000  0.30190000  0.14460000  1.0 0.1207311631
H  H52  1  0.15730000  0.90070000  0.85540000  1.0 0.1207311631
H  H53  1  0.11650000  0.06470000  0.31560000  1.0 0.1207311631
H  H54  1  0.74910000  0.80090000  0.68440000  1.0 0.1207311631
H  H55  1  0.93530000  0.25090000  0.05180000  1.0 0.1207311631
H  H56  1  0.19910000  0.88350000  0.94820000  1.0 0.1207311631
H  H57  1  0.31270000  0.11190000  0.43340000  1.0 0.1278162079
H  H58  1  0.67850000  0.87930000  0.56660000  1.0 0.1278162079
H  H59  1  0.88810000  0.32150000  0.20080000  1.0 0.1278162079
H  H60  1  0.12070000  0.68730000  0.79920000  1.0 0.1278162079
H  H61  1  0.29670000  0.00070000  0.36980000  1.0 0.1207311631
H  H62  1  0.63090000  0.92690000  0.63020000  1.0 0.1207311631
H  H63  1  0.99930000  0.36910000  0.29600000  1.0 0.1207311631
H  H64  1  0.07310000  0.70330000  0.70400000  1.0 0.1207311631
H  H65  1  0.02340000  0.78330000  0.20370000  1.0 0.1207311631
H  H66  1  0.57960000  0.81970000  0.79630000  1.0 0.1207311631
H  H67  1  0.21670000  0.42040000  0.24010000  1.0 0.1207311631
H  H68  1  0.18030000  0.97660000  0.75990000  1.0 0.1207311631
H  H69  1  0.96740000  0.79590000  0.26110000  1.0 0.1278162079
H  H70  1  0.53480000  0.70630000  0.73890000  1.0 0.1207311631
H  H71  1  0.20410000  0.46520000  0.17150000  1.0 0.1278162079
H  H72  1  0.29370000  0.03260000  0.82850000  1.0 0.1278162079
H  H73  1  0.13190000  0.94480000  0.45630000  1.0 0.1278162079
H  H74  1  0.48850000  0.67560000  0.54370000  1.0 0.1278162079
H  H75  1  0.05520000  0.51150000  0.18710000  1.0 0.1278162079
H  H76  1  0.32440000  0.86810000  0.81290000  1.0 0.1278162079
H  H77  1  0.18550000  0.93600000  0.39850000  1.0 0.111718022
H  H78  1  0.53750000  0.78700000  0.60150000  1.0 0.111718022
H  H79  1  0.06400000  0.46250000  0.24950000  1.0 0.111718022
H  H80  1  0.21300000  0.81450000  0.75050000  1.0 0.111718022
C  C1  1  0.16307000  0.49497000  0.90850000  1.0 -0.0278443954
C  C2  1  0.58647000  0.25457000  0.09150000  1.0 -0.0278443954
C  C3  1  0.50503000  0.41353000  0.66810000  1.0 -0.0278443954
C  C4  1  0.74543000  0.83693000  0.33190000  1.0 -0.0278443954
C  C5  1  0.11758000  0.45068000  0.90310000  1.0 -0.0619212875
C  C6  1  0.54758000  0.21448000  0.09690000  1.0 -0.0619212875
C  C7  1  0.54932000  0.45242000  0.66690000  1.0 -0.0619212875
C  C8  1  0.78552000  0.88242000  0.33310000  1.0 -0.0619212875
C  C9  1  0.09990000  0.38250000  0.85400000  1.0 -0.1297266448
C  C10  1  0.52850000  0.24590000  0.14600000  1.0 -0.1297266448
C  C11  1  0.61750000  0.47150000  0.71740000  1.0 -0.1297266448
C  C12  1  0.75410000  0.90010000  0.28260000  1.0 -0.1297266448
C  C13  1  0.12280000  0.35700000  0.80860000  1.0 0.0206785502
C  C14  1  0.54840000  0.31420000  0.19140000  1.0 0.0206785502
C  C15  1  0.64300000  0.45160000  0.76580000  1.0 0.0206785502
C  C16  1  0.68580000  0.87720000  0.23420000  1.0 0.0206785502
C  C17  1  0.16366000  0.40086000  0.80980000  1.0 0.0206785502
C  C18  1  0.59106000  0.35386000  0.19020000  1.0 0.0206785502
C  C19  1  0.59914000  0.40894000  0.76280000  1.0 0.0206785502
C  C20  1  0.64614000  0.83634000  0.23720000  1.0 0.0206785502
C  C21  1  0.18400000  0.46840000  0.86080000  1.0 -0.1515659016
C  C22  1  0.60760000  0.32320000  0.13920000  1.0 -0.1515659016
C  C23  1  0.53160000  0.39240000  0.71560000  1.0 -0.1515659016
C  C24  1  0.67680000  0.81600000  0.28440000  1.0 -0.1515659016
C  C25  1  0.19198000  0.56888000  0.96030000  1.0 0.6009454377
C  C26  1  0.60858000  0.23168000  0.03970000  1.0 0.6009454377
C  C27  1  0.43112000  0.39142000  0.62310000  1.0 0.6009454377
C  C28  1  0.76832000  0.80802000  0.37690000  1.0 0.6009454377
C  C29  1  0.08930000  0.47000000  0.94730000  1.0 0.5643308011
C  C30  1  0.52270000  0.14200000  0.05270000  1.0 0.5643308011
C  C31  1  0.53000000  0.47730000  0.61930000  1.0 0.5643308011
C  C32  1  0.85800000  0.91070000  0.38070000  1.0 0.5643308011
C  C33  1  0.10210000  0.28350000  0.76080000  1.0 0.0811353119
C  C34  1  0.52270000  0.34130000  0.23920000  1.0 0.0811353119
C  C35  1  0.71650000  0.47730000  0.81860000  1.0 0.0811353119
C  C36  1  0.65870000  0.89790000  0.18140000  1.0 0.0811353119
C  C37  1  0.03460000  0.24270000  0.71290000  1.0 -0.1677532496
C  C38  1  0.52980000  0.32170000  0.28710000  1.0 -0.1677532496
C  C39  1  0.75730000  0.47020000  0.79190000  1.0 -0.1677532496
C  C40  1  0.67830000  0.96540000  0.20810000  1.0 -0.1677532496
C  C41  1  0.01730000  0.17440000  0.66630000  1.0 -0.0831121686
C  C42  1  0.50810000  0.35100000  0.33370000  1.0 -0.0831121686
C  C43  1  0.82560000  0.49190000  0.84290000  1.0 -0.0831121686
C  C44  1  0.64900000  0.98270000  0.15710000  1.0 -0.0831121686
C  C45  1  0.06490000  0.14720000  0.66790000  1.0 -0.0127955311
C  C46  1  0.47930000  0.39700000  0.33210000  1.0 -0.0127955311
C  C47  1  0.85280000  0.52070000  0.91770000  1.0 -0.0127955311
C  C48  1  0.60300000  0.93510000  0.08230000  1.0 -0.0127955311
C  C49  1  0.13040000  0.18480000  0.71420000  1.0 -0.0893871824
C  C50  1  0.47060000  0.41620000  0.28580000  1.0 -0.0893871824
C  C51  1  0.81520000  0.52940000  0.94560000  1.0 -0.0893871824
C  C52  1  0.58380000  0.86960000  0.05440000  1.0 -0.0893871824
C  C53  1  0.15150000  0.25590000  0.76320000  1.0 -0.1611352658
C  C54  1  0.49270000  0.38830000  0.23680000  1.0 -0.1611352658
C  C55  1  0.74410000  0.50730000  0.89560000  1.0 -0.1611352658
C  C56  1  0.61170000  0.84850000  0.10440000  1.0 -0.1611352658
C  C57  1  0.04310000  0.07170000  0.61340000  1.0 0.5463486759
C  C58  1  0.45830000  0.42970000  0.38660000  1.0 0.5463486759
C  C59  1  0.92830000  0.54170000  0.97140000  1.0 0.5463486759
C  C60  1  0.57030000  0.95690000  0.02860000  1.0 0.5463486759
C  C61  1  0.18205000  0.37755000  0.75550000  1.0 0.0811353119
C  C62  1  0.62205000  0.42655000  0.24450000  1.0 0.0811353119
C  C63  1  0.62245000  0.37795000  0.80450000  1.0 0.0811353119
C  C64  1  0.57345000  0.81795000  0.19550000  1.0 0.0811353119
C  C65  1  0.13200000  0.33290000  0.67810000  1.0 -0.1515659016
C  C66  1  0.65480000  0.45390000  0.32190000  1.0 -0.1515659016
C  C67  1  0.66710000  0.34520000  0.79910000  1.0 -0.1515659016
C  C68  1  0.54610000  0.86800000  0.20090000  1.0 -0.1515659016
C  C69  1  0.14710000  0.31160000  0.62670000  1.0 -0.0831121686
C  C70  1  0.68490000  0.52040000  0.37330000  1.0 -0.0831121686
C  C71  1  0.68840000  0.31510000  0.83550000  1.0 -0.0831121686
C  C72  1  0.47960000  0.85290000  0.16450000  1.0 -0.0831121686
C  C73  1  0.21170000  0.33310000  0.64960000  1.0 -0.0278443954
C  C74  1  0.68350000  0.56210000  0.35040000  1.0 -0.0278443954
C  C75  1  0.66690000  0.31650000  0.87860000  1.0 -0.0278443954
C  C76  1  0.43790000  0.78830000  0.12140000  1.0 -0.0278443954
C  C77  1  0.26140000  0.37900000  0.72300000  1.0 -0.0893871824
C  C78  1  0.65600000  0.53840000  0.27700000  1.0 -0.0893871824
C  C79  1  0.62100000  0.34400000  0.88240000  1.0 -0.0893871824
C  C80  1  0.46160000  0.73860000  0.11760000  1.0 -0.0893871824
C  C81  1  0.24820000  0.40060000  0.77820000  1.0 -0.1611352658
C  C82  1  0.62240000  0.47000000  0.22180000  1.0 -0.1611352658
C  C83  1  0.59940000  0.37760000  0.84760000  1.0 -0.1611352658
C  C84  1  0.53000000  0.75180000  0.15240000  1.0 -0.1611352658
C  C85  1  0.22808000  0.30678000  0.59050000  1.0 0.593830051
C  C86  1  0.71628000  0.63758000  0.40950000  1.0 0.593830051
C  C87  1  0.69322000  0.28372000  0.92130000  1.0 0.593830051
C  C88  1  0.36242000  0.77192000  0.07870000  1.0 0.593830051
C  C89  1  0.16321000  0.76011000  0.16910000  1.0 -0.0278443954
C  C90  1  0.59101000  0.99411000  0.83090000  1.0 -0.0278443954
C  C91  1  0.23989000  0.40899000  0.40310000  1.0 -0.0278443954
C  C92  1  0.00589000  0.83679000  0.59690000  1.0 -0.0278443954
C  C93  1  0.20442000  0.80922000  0.17780000  1.0 -0.0278443954
C  C94  1  0.63142000  0.02662000  0.82220000  1.0 -0.0278443954
C  C95  1  0.19078000  0.36858000  0.39520000  1.0 -0.0278443954
C  C96  1  0.97338000  0.79558000  0.60480000  1.0 -0.0278443954
C  C97  1  0.21587000  0.87527000  0.22500000  1.0 -0.1515659016
C  C98  1  0.65027000  0.99087000  0.77500000  1.0 -0.1515659016
C  C99  1  0.12473000  0.34973000  0.34060000  1.0 -0.1515659016
C  C100  1  0.00913000  0.78413000  0.65940000  1.0 -0.1515659016
C  C101  1  0.18750000  0.89370000  0.26400000  1.0 0.0206785502
C  C102  1  0.62970000  0.92350000  0.73600000  1.0 0.0206785502
C  C103  1  0.10630000  0.37030000  0.29380000  1.0 0.0206785502
C  C104  1  0.07650000  0.81250000  0.70620000  1.0 0.0206785502
C  C105  1  0.14340000  0.84600000  0.25520000  1.0 0.0206785502
C  C106  1  0.59080000  0.88820000  0.74480000  1.0 0.0206785502
C  C107  1  0.15400000  0.40920000  0.29740000  1.0 0.0206785502
C  C108  1  0.11180000  0.85660000  0.70260000  1.0 0.0206785502
C  C109  1  0.13400000  0.77990000  0.21010000  1.0 -0.1515659016
C  C110  1  0.56980000  0.92390000  0.78990000  1.0 -0.1515659016
C  C111  1  0.22010000  0.43020000  0.35410000  1.0 -0.1515659016
C  C112  1  0.07610000  0.86600000  0.64590000  1.0 -0.1515659016
C  C113  1  0.14783000  0.68833000  0.12450000  1.0 0.6077783404
C  C114  1  0.56383000  0.02333000  0.87550000  1.0 0.6077783404
C  C115  1  0.31167000  0.43617000  0.45950000  1.0 0.6077783404
C  C116  1  0.97667000  0.85217000  0.54050000  1.0 0.6077783404
C  C117  1  0.23320000  0.79100000  0.13260000  1.0 0.6077783404
C  C118  1  0.65840000  0.10060000  0.86740000  1.0 0.6077783404
C  C119  1  0.20900000  0.34160000  0.44220000  1.0 0.6077783404
C  C120  1  0.89940000  0.76680000  0.55780000  1.0 0.6077783404
C  C121  1  0.19487000  0.96607000  0.30480000  1.0 0.0811353119
C  C122  1  0.66127000  0.89007000  0.69520000  1.0 0.0811353119
C  C123  1  0.03393000  0.33873000  0.22880000  1.0 0.0811353119
C  C124  1  0.10993000  0.80513000  0.77120000  1.0 0.0811353119
C  C125  1  0.14220000  0.98590000  0.29070000  1.0 -0.1444578843
C  C126  1  0.69520000  0.85150000  0.70930000  1.0 -0.1444578843
C  C127  1  0.01410000  0.30480000  0.15630000  1.0 -0.1444578843
C  C128  1  0.14850000  0.85780000  0.84370000  1.0 -0.1444578843
C  C129  1  0.15280000  0.05160000  0.32680000  1.0 -0.0893871824
C  C130  1  0.72480000  0.82600000  0.67320000  1.0 -0.0893871824
C  C131  1  0.94840000  0.27520000  0.10120000  1.0 -0.0893871824
C  C132  1  0.17400000  0.84720000  0.89880000  1.0 -0.0893871824
C  C133  1  0.21620000  0.10000000  0.38000000  1.0 -0.0381323092
C  C134  1  0.72000000  0.83620000  0.62000000  1.0 -0.0381323092
C  C135  1  0.90000000  0.28000000  0.11620000  1.0 -0.0381323092
C  C136  1  0.16380000  0.78380000  0.88380000  1.0 -0.0381323092
C  C137  1  0.27000000  0.08030000  0.39670000  1.0 -0.0893871824
C  C138  1  0.68360000  0.87330000  0.60330000  1.0 -0.0893871824
C  C139  1  0.91970000  0.31640000  0.18970000  1.0 -0.0893871824
C  C140  1  0.12670000  0.73000000  0.81030000  1.0 -0.0893871824
C  C141  1  0.26060000  0.01400000  0.35940000  1.0 -0.1515659016
C  C142  1  0.65460000  0.90120000  0.64060000  1.0 -0.1515659016
C  C143  1  0.98600000  0.34540000  0.24660000  1.0 -0.1515659016
C  C144  1  0.09880000  0.73940000  0.75340000  1.0 -0.1515659016
C  C145  1  0.22450000  0.17200000  0.41710000  1.0 0.593830051
C  C146  1  0.75490000  0.80740000  0.58290000  1.0 0.593830051
C  C147  1  0.82800000  0.24510000  0.05250000  1.0 0.593830051
C  C148  1  0.19260000  0.77550000  0.94750000  1.0 0.6009454377
C  C149  1  0.11084000  0.85854000  0.29530000  1.0 0.0715194938
C  C150  1  0.56324000  0.81554000  0.70470000  1.0 0.0715194938
C  C151  1  0.14146000  0.43676000  0.25230000  1.0 0.0715194938
C  C152  1  0.18446000  0.88916000  0.74770000  1.0 0.0715194938
C  C153  1  0.04500000  0.81610000  0.25430000  1.0 -0.1515659016
C  C154  1  0.56180000  0.79070000  0.74570000  1.0 -0.1515659016
C  C155  1  0.18390000  0.43820000  0.22890000  1.0 -0.1515659016
C  C156  1  0.20930000  0.95500000  0.77110000  1.0 -0.1515659016
C  C157  1  0.01170000  0.82270000  0.28900000  1.0 -0.0831121686
C  C158  1  0.53370000  0.72270000  0.71100000  1.0 -0.0831121686
C  C159  1  0.17730000  0.46630000  0.18900000  1.0 -0.0831121686
C  C160  1  0.27730000  0.98830000  0.81100000  1.0 -0.0831121686
C  C161  1  0.04420000  0.86850000  0.36430000  1.0 -0.0278443954
C  C162  1  0.50420000  0.67990000  0.63570000  1.0 -0.0278443954
C  C163  1  0.13150000  0.49580000  0.17570000  1.0 -0.0278443954
C  C164  1  0.32010000  0.95580000  0.82430000  1.0 -0.0278443954
C  C165  1  0.11030000  0.91240000  0.40570000  1.0 -0.0893871824
C  C166  1  0.50670000  0.70460000  0.59430000  1.0 -0.0893871824
C  C167  1  0.08760000  0.49330000  0.19790000  1.0 -0.0893871824
C  C168  1  0.29540000  0.88970000  0.80210000  1.0 -0.0893871824
C  C169  1  0.14230000  0.90700000  0.37110000  1.0 -0.1515659016
C  C170  1  0.53590000  0.77120000  0.62890000  1.0 -0.1515659016
C  C171  1  0.09300000  0.46410000  0.23530000  1.0 -0.1515659016
C  C172  1  0.22880000  0.85770000  0.76470000  1.0 -0.1515659016
C  C173  1  0.01040000  0.87210000  0.40310000  1.0 0.6009454377
C  C174  1  0.46900000  0.60730000  0.59690000  1.0 0.6009454377
C  C175  1  0.12790000  0.53100000  0.13830000  1.0 0.6009454377
C  C176  1  0.39270000  0.98960000  0.86170000  1.0 0.6009454377
O  O1  1  0.22902000  0.59902000  0.03040000  1.0 -0.5715340527
O  O2  1  0.56862000  0.19862000  0.96960000  1.0 -0.5715340527
O  O3  1  0.40098000  0.43138000  0.63000000  1.0 -0.5715340527
O  O4  1  0.80138000  0.77098000  0.37000000  1.0 -0.5715340527
O  O5  1  0.18110000  0.59990000  0.92960000  1.0 -0.495540187
O  O6  1  0.67030000  0.25150000  0.07040000  1.0 -0.495540187
O  O7  1  0.40010000  0.32970000  0.58120000  1.0 -0.4946897181
O  O8  1  0.74850000  0.81890000  0.41880000  1.0 -0.495540187
O  O9  1  0.10883000  0.53381000  0.99530000  1.0 -0.6158641728
O  O10  1  0.53851000  0.11353000  0.00470000  1.0 -0.6137902888
O  O11  1  0.46619000  0.46149000  0.57502000  1.0 -0.6137902888
O  O12  1  0.88647000  0.89117000  0.42498000  1.0 -0.6158641728
O  O13  1  0.04659000  0.42769000  0.93510000  1.0 -0.4683720819
O  O14  1  0.49259000  0.11149000  0.06490000  1.0 -0.4683720819
O  O15  1  0.57231000  0.50741000  0.61890000  1.0 -0.46394448
O  O16  1  0.88851000  0.95341000  0.38110000  1.0 -0.4683720819
O  O17  1  0.98320000  0.04050000  0.56510000  1.0 -0.5110046078
O  O18  1  0.47540000  0.41810000  0.43490000  1.0 -0.5110046078
O  O19  1  0.95950000  0.52460000  0.94270000  1.0 -0.5110046078
O  O20  1  0.58190000  0.01680000  0.05730000  1.0 -0.5110046078
O  O21  1  0.08780000  0.04700000  0.62360000  1.0 -0.5275519642
O  O22  1  0.42340000  0.46420000  0.37640000  1.0 -0.521674282
O  O23  1  0.95300000  0.57660000  0.04080000  1.0 -0.5275519642
O  O24  1  0.53580000  0.91220000  0.95920000  1.0 -0.5275519642
O  O25  1  0.18519000  0.25551000  0.52812000  1.0 -0.5791175318
O  O26  1  0.72739000  0.65707000  0.47188000  1.0 -0.5791175318
O  O27  1  0.74449000  0.27261000  0.92968000  1.0 -0.5791175318
O  O28  1  0.34293000  0.81481000  0.07032000  1.0 -0.5791175318
O  O29  1  0.28286000  0.33836000  0.60890000  1.0 -0.521674282
O  O30  1  0.72946000  0.67396000  0.39110000  1.0 -0.5110046078
O  O31  1  0.66164000  0.27054000  0.94450000  1.0 -0.521674282
O  O32  1  0.32604000  0.71714000  0.05550000  1.0 -0.5110046078
O  O33  1  0.08728000  0.65398000  0.07810000  1.0 -0.5110046078
O  O34  1  0.57588000  0.00918000  0.92190000  1.0 -0.5110046078
O  O35  1  0.34602000  0.42412000  0.43330000  1.0 -0.5110046078
O  O36  1  0.99082000  0.91272000  0.56670000  1.0 -0.5110046078
O  O37  1  0.19554000  0.66857000  0.14083000  1.0 -0.5565121922
O  O38  1  0.52774000  0.05471000  0.85917000  1.0 -0.5565121922
O  O39  1  0.33143000  0.47226000  0.52697000  1.0 -0.5565121922
O  O40  1  0.94529000  0.80446000  0.47303000  1.0 -0.5565121922
O  O41  1  0.20225000  0.73523000  0.07178000  1.0 -0.5110046078
O  O42  1  0.66345000  0.13047000  0.92822000  1.0 -0.5110046078
O  O43  1  0.26477000  0.33655000  0.46702000  1.0 -0.5110046078
O  O44  1  0.86953000  0.79775000  0.53298000  1.0 -0.5110046078
O  O45  1  0.28466000  0.83256000  0.15618000  1.0 -0.5866854044
O  O46  1  0.67638000  0.12848000  0.84382000  1.0 -0.5866854044
O  O47  1  0.16744000  0.32362000  0.45210000  1.0 -0.5866854044
O  O48  1  0.87152000  0.71534000  0.54790000  1.0 -0.5866854044
O  O49  1  0.28173000  0.21205000  0.47452000  1.0 -0.5275519642
O  O50  1  0.73753000  0.80721000  0.52548000  1.0 -0.5275519642
O  O51  1  0.78795000  0.26247000  0.06968000  1.0 -0.5275519642
O  O52  1  0.19279000  0.71827000  0.93032000  1.0 -0.5275519642
O  O53  1  0.17792000  0.18782000  0.38830000  1.0 -0.5791175318
O  O54  1  0.79952000  0.78962000  0.61170000  1.0 -0.5791175318
O  O55  1  0.81218000  0.20048000  0.99010000  1.0 -0.5791175318
O  O56  1  0.21038000  0.82208000  0.00990000  1.0 -0.5791175318
O  O57  1  0.03238000  0.92568000  0.46450000  1.0 -0.521674282
O  O58  1  0.46118000  0.56788000  0.53550000  1.0 -0.521674282
O  O59  1  0.07432000  0.53882000  0.10670000  1.0 -0.521674282
O  O60  1  0.43212000  0.96762000  0.89330000  1.0 -0.521674282
O  O61  1  0.96118000  0.82048000  0.36670000  1.0 -0.5791175318
O  O62  1  0.45378000  0.59448000  0.63330000  1.0 -0.5791175318
O  O63  1  0.17952000  0.54622000  0.14070000  1.0 -0.5791175318
O  O64  1  0.40552000  0.03882000  0.85930000  1.0 -0.5791175318
