# DDEC6 charges by PACMAN v1.1 (https://github.com/mtap-research/PACMAN-charge/)
data_YOCNAH_ASR_pacman
_symmetry_space_group_name_H-M   'P 1'
_cell_length_a   18.62300000
_cell_length_b   18.62300000
_cell_length_c   6.89730000
_cell_angle_alpha   90.00000000
_cell_angle_beta   90.00000000
_cell_angle_gamma   120.00000000
_symmetry_Int_Tables_number   1
_chemical_formula_structural   CuH9C11O6
_chemical_formula_sum   'Cu6 H54 C66 O36'
_cell_volume   2071.61494002
_cell_formula_units_Z   6
loop_
 _symmetry_equiv_pos_site_id
 _symmetry_equiv_pos_as_xyz
  1  'x, y, z'
loop_
 _atom_site_type_symbol
 _atom_site_label
 _atom_site_symmetry_multiplicity
 _atom_site_fract_x
 _atom_site_fract_y
 _atom_site_fract_z
 _atom_site_occupancy
 _atom_site_charge
Cu  Cu1  1  0.47677000  0.52323000  0.15540000  1.0 0.8317622079
Cu  Cu2  1  0.47677000  0.95354000  0.15540000  1.0 0.8317622079
Cu  Cu3  1  0.04646000  0.52323000  0.15540000  1.0 0.8317622079
Cu  Cu4  1  0.95354000  0.47677000  0.84460000  1.0 0.8317622079
Cu  Cu5  1  0.52323000  0.04646000  0.84460000  1.0 0.8317622079
Cu  Cu6  1  0.52323000  0.47677000  0.84460000  1.0 0.8317622079
H  H1  1  0.36100000  0.28980000  0.47180000  1.0 0.1395012124
H  H2  1  0.71020000  0.07120000  0.47180000  1.0 0.1395012124
H  H3  1  0.92880000  0.63900000  0.47180000  1.0 0.1395012124
H  H4  1  0.07120000  0.71020000  0.52820000  1.0 0.1395012124
H  H5  1  0.63900000  0.92880000  0.52820000  1.0 0.1395012124
H  H6  1  0.28980000  0.36100000  0.52820000  1.0 0.1395012124
H  H7  1  0.63900000  0.71020000  0.52820000  1.0 0.1395012124
H  H8  1  0.28980000  0.92880000  0.52820000  1.0 0.1395012124
H  H9  1  0.07120000  0.36100000  0.52820000  1.0 0.1395012124
H  H10  1  0.92880000  0.28980000  0.47180000  1.0 0.1395012124
H  H11  1  0.36100000  0.07120000  0.47180000  1.0 0.1395012124
H  H12  1  0.71020000  0.63900000  0.47180000  1.0 0.1395012124
H  H13  1  0.47350000  0.23675000  0.02940000  1.0 0.1395012124
H  H14  1  0.76325000  0.23675000  0.02940000  1.0 0.1395012124
H  H15  1  0.76325000  0.52650000  0.02940000  1.0 0.1395012124
H  H16  1  0.23675000  0.76325000  0.97060000  1.0 0.1395012124
H  H17  1  0.52650000  0.76325000  0.97060000  1.0 0.1395012124
H  H18  1  0.23675000  0.47350000  0.97060000  1.0 0.1395012124
H  H19  1  0.23020000  0.99310000  0.94320000  1.0 0.0526449962
H  H20  1  0.00690000  0.23710000  0.94320000  1.0 0.0526449962
H  H21  1  0.76290000  0.76980000  0.94320000  1.0 0.0526449962
H  H22  1  0.23710000  0.00690000  0.05680000  1.0 0.0526449962
H  H23  1  0.76980000  0.76290000  0.05680000  1.0 0.0526449962
H  H24  1  0.99310000  0.23020000  0.05680000  1.0 0.0526449962
H  H25  1  0.76980000  0.00690000  0.05680000  1.0 0.0526449962
H  H26  1  0.99310000  0.76290000  0.05680000  1.0 0.0526449962
H  H27  1  0.23710000  0.23020000  0.05680000  1.0 0.0526449962
H  H28  1  0.76290000  0.99310000  0.94320000  1.0 0.0526449962
H  H29  1  0.23020000  0.23710000  0.94320000  1.0 0.0526449962
H  H30  1  0.00690000  0.76980000  0.94320000  1.0 0.0526449962
H  H31  1  0.26260000  0.08140000  0.02630000  1.0 0.0688933329
H  H32  1  0.91860000  0.18120000  0.02630000  1.0 0.0688933329
H  H33  1  0.81880000  0.73740000  0.02630000  1.0 0.0688933329
H  H34  1  0.18120000  0.91860000  0.97370000  1.0 0.0688933329
H  H35  1  0.73740000  0.81880000  0.97370000  1.0 0.0688933329
H  H36  1  0.08140000  0.26260000  0.97370000  1.0 0.0688933329
H  H37  1  0.73740000  0.91860000  0.97370000  1.0 0.0688933329
H  H38  1  0.08140000  0.81880000  0.97370000  1.0 0.0688933329
H  H39  1  0.18120000  0.26260000  0.97370000  1.0 0.0688933329
H  H40  1  0.81880000  0.08140000  0.02630000  1.0 0.0688933329
H  H41  1  0.26260000  0.18120000  0.02630000  1.0 0.0688933329
H  H42  1  0.91860000  0.73740000  0.02630000  1.0 0.0688933329
H  H43  1  0.18140000  0.03920000  0.90560000  1.0 0.0968414963
H  H44  1  0.96080000  0.14220000  0.90560000  1.0 0.0968414963
H  H45  1  0.85780000  0.81860000  0.90560000  1.0 0.0968414963
H  H46  1  0.14220000  0.96080000  0.09440000  1.0 0.0968414963
H  H47  1  0.81860000  0.85780000  0.09440000  1.0 0.0968414963
H  H48  1  0.03920000  0.18140000  0.09440000  1.0 0.0968414963
H  H49  1  0.81860000  0.96080000  0.09440000  1.0 0.0968414963
H  H50  1  0.03920000  0.85780000  0.09440000  1.0 0.0968414963
H  H51  1  0.14220000  0.18140000  0.09440000  1.0 0.0968414963
H  H52  1  0.85780000  0.03920000  0.90560000  1.0 0.0968414963
H  H53  1  0.18140000  0.14220000  0.90560000  1.0 0.0968414963
H  H54  1  0.96080000  0.81860000  0.90560000  1.0 0.0968414963
C  C1  1  0.44940000  0.35860000  0.14760000  1.0 0.5624962383
C  C2  1  0.64140000  0.09080000  0.14760000  1.0 0.5624962383
C  C3  1  0.90920000  0.55060000  0.14760000  1.0 0.5624962383
C  C4  1  0.09080000  0.64140000  0.85240000  1.0 0.5624962383
C  C5  1  0.55060000  0.90920000  0.85240000  1.0 0.5624962383
C  C6  1  0.35860000  0.44940000  0.85240000  1.0 0.5624962383
C  C7  1  0.55060000  0.64140000  0.85240000  1.0 0.5624962383
C  C8  1  0.35860000  0.90920000  0.85240000  1.0 0.5624962383
C  C9  1  0.09080000  0.44940000  0.85240000  1.0 0.5624962383
C  C10  1  0.90920000  0.35860000  0.14760000  1.0 0.5624962383
C  C11  1  0.44940000  0.09080000  0.14760000  1.0 0.5624962383
C  C12  1  0.64140000  0.55060000  0.14760000  1.0 0.5624962383
C  C13  1  0.42180000  0.27570000  0.23680000  1.0 -0.0143906393
C  C14  1  0.72430000  0.14610000  0.23680000  1.0 -0.0143906393
C  C15  1  0.85390000  0.57820000  0.23680000  1.0 -0.0143906393
C  C16  1  0.14610000  0.72430000  0.76320000  1.0 -0.0143906393
C  C17  1  0.57820000  0.85390000  0.76320000  1.0 -0.0143906393
C  C18  1  0.27570000  0.42180000  0.76320000  1.0 -0.0143906393
C  C19  1  0.57820000  0.72430000  0.76320000  1.0 -0.0143906393
C  C20  1  0.27570000  0.85390000  0.76320000  1.0 -0.0143906393
C  C21  1  0.14610000  0.42180000  0.76320000  1.0 -0.0143906393
C  C22  1  0.85390000  0.27570000  0.23680000  1.0 -0.0143906393
C  C23  1  0.42180000  0.14610000  0.23680000  1.0 -0.0143906393
C  C24  1  0.72430000  0.57820000  0.23680000  1.0 -0.0143906393
C  C25  1  0.37610000  0.25230000  0.40700000  1.0 -0.0821227386
C  C26  1  0.74770000  0.12380000  0.40700000  1.0 -0.0821227386
C  C27  1  0.87620000  0.62390000  0.40700000  1.0 -0.0821227386
C  C28  1  0.12380000  0.74770000  0.59300000  1.0 -0.0821227386
C  C29  1  0.62390000  0.87620000  0.59300000  1.0 -0.0821227386
C  C30  1  0.25230000  0.37610000  0.59300000  1.0 -0.0821227386
C  C31  1  0.62390000  0.74770000  0.59300000  1.0 -0.0821227386
C  C32  1  0.25230000  0.87620000  0.59300000  1.0 -0.0821227386
C  C33  1  0.12380000  0.37610000  0.59300000  1.0 -0.0821227386
C  C34  1  0.87620000  0.25230000  0.40700000  1.0 -0.0821227386
C  C35  1  0.37610000  0.12380000  0.40700000  1.0 -0.0821227386
C  C36  1  0.74770000  0.62390000  0.40700000  1.0 -0.0821227386
C  C37  1  0.44290000  0.22145000  0.15120000  1.0 -0.1042742423
C  C38  1  0.77855000  0.22145000  0.15120000  1.0 -0.1042742423
C  C39  1  0.77855000  0.55710000  0.15120000  1.0 -0.1042742423
C  C40  1  0.22145000  0.77855000  0.84880000  1.0 -0.1042742423
C  C41  1  0.55710000  0.77855000  0.84880000  1.0 -0.1042742423
C  C42  1  0.22145000  0.44290000  0.84880000  1.0 -0.1042742423
C  C43  1  0.35230000  0.17615000  0.48720000  1.0 -0.0352336532
C  C44  1  0.82385000  0.17615000  0.48720000  1.0 -0.0352336532
C  C45  1  0.82385000  0.64770000  0.48720000  1.0 -0.0352336532
C  C46  1  0.17615000  0.82385000  0.51280000  1.0 -0.0352336532
C  C47  1  0.64770000  0.82385000  0.51280000  1.0 -0.0352336532
C  C48  1  0.17615000  0.35230000  0.51280000  1.0 -0.0352336532
C  C49  1  0.30290000  0.15145000  0.67040000  1.0 0.4802734786
C  C50  1  0.84855000  0.15145000  0.67040000  1.0 0.4802734786
C  C51  1  0.84855000  0.69710000  0.67040000  1.0 0.4802734786
C  C52  1  0.15145000  0.84855000  0.32960000  1.0 0.4802734786
C  C53  1  0.69710000  0.84855000  0.32960000  1.0 0.4802734786
C  C54  1  0.15145000  0.30290000  0.32960000  1.0 0.4802734786
C  C55  1  0.23560000  0.04850000  0.91400000  1.0 -0.1671980388
C  C56  1  0.95150000  0.18710000  0.91400000  1.0 -0.1671980388
C  C57  1  0.81290000  0.76440000  0.91400000  1.0 -0.1671980388
C  C58  1  0.18710000  0.95150000  0.08600000  1.0 -0.1671980388
C  C59  1  0.76440000  0.81290000  0.08600000  1.0 -0.1671980388
C  C60  1  0.04850000  0.23560000  0.08600000  1.0 -0.1671980388
C  C61  1  0.76440000  0.95150000  0.08600000  1.0 -0.1671980388
C  C62  1  0.04850000  0.81290000  0.08600000  1.0 -0.1671980388
C  C63  1  0.18710000  0.23560000  0.08600000  1.0 -0.1671980388
C  C64  1  0.81290000  0.04850000  0.91400000  1.0 -0.1671980388
C  C65  1  0.23560000  0.18710000  0.91400000  1.0 -0.1671980388
C  C66  1  0.95150000  0.76440000  0.91400000  1.0 -0.1671980388
O  O1  1  0.44260000  0.41130000  0.24820000  1.0 -0.5016184515
O  O2  1  0.58870000  0.03130000  0.24820000  1.0 -0.5016184515
O  O3  1  0.96870000  0.55740000  0.24820000  1.0 -0.5016184515
O  O4  1  0.03130000  0.58870000  0.75180000  1.0 -0.5016184515
O  O5  1  0.55740000  0.96870000  0.75180000  1.0 -0.5016184515
O  O6  1  0.41130000  0.44260000  0.75180000  1.0 -0.5016184515
O  O7  1  0.55740000  0.58870000  0.75180000  1.0 -0.5016184515
O  O8  1  0.41130000  0.96870000  0.75180000  1.0 -0.5016184515
O  O9  1  0.03130000  0.44260000  0.75180000  1.0 -0.5016184515
O  O10  1  0.96870000  0.41130000  0.24820000  1.0 -0.5016184515
O  O11  1  0.44260000  0.03130000  0.24820000  1.0 -0.5016184515
O  O12  1  0.58870000  0.55740000  0.24820000  1.0 -0.5016184515
O  O13  1  0.51910000  0.62800000  0.01880000  1.0 -0.5089402861
O  O14  1  0.37200000  0.89110000  0.01880000  1.0 -0.5089402861
O  O15  1  0.10890000  0.48090000  0.01880000  1.0 -0.5089402861
O  O16  1  0.89110000  0.37200000  0.98120000  1.0 -0.5089402861
O  O17  1  0.48090000  0.10890000  0.98120000  1.0 -0.5089402861
O  O18  1  0.62800000  0.51910000  0.98120000  1.0 -0.5089402861
O  O19  1  0.48090000  0.37200000  0.98120000  1.0 -0.5089402861
O  O20  1  0.62800000  0.10890000  0.98120000  1.0 -0.5089402861
O  O21  1  0.89110000  0.51910000  0.98120000  1.0 -0.5089402861
O  O22  1  0.10890000  0.62800000  0.01880000  1.0 -0.5089402861
O  O23  1  0.51910000  0.89110000  0.01880000  1.0 -0.5089402861
O  O24  1  0.37200000  0.48090000  0.01880000  1.0 -0.5089402861
O  O25  1  0.28270000  0.08130000  0.74120000  1.0 -0.3021216235
O  O26  1  0.91870000  0.20140000  0.74120000  1.0 -0.3021216235
O  O27  1  0.79860000  0.71730000  0.74120000  1.0 -0.3021216235
O  O28  1  0.20140000  0.91870000  0.25880000  1.0 -0.3021216235
O  O29  1  0.71730000  0.79860000  0.25880000  1.0 -0.3021216235
O  O30  1  0.08130000  0.28270000  0.25880000  1.0 -0.3021216235
O  O31  1  0.71730000  0.91870000  0.25880000  1.0 -0.3021216235
O  O32  1  0.08130000  0.79860000  0.25880000  1.0 -0.3021216235
O  O33  1  0.20140000  0.28270000  0.25880000  1.0 -0.3021216235
O  O34  1  0.79860000  0.08130000  0.74120000  1.0 -0.3021216235
O  O35  1  0.28270000  0.20140000  0.74120000  1.0 -0.3021216235
O  O36  1  0.91870000  0.71730000  0.74120000  1.0 -0.3021216235
