# DDEC6 charges by PACMAN v1.1 (https://github.com/mtap-research/PACMAN-charge/)
data_YODNOX_ASR_pacman
_symmetry_space_group_name_H-M   'P 1'
_cell_length_a   15.86670000
_cell_length_b   15.86670000
_cell_length_c   15.86670000
_cell_angle_alpha   90.00000000
_cell_angle_beta   90.00000000
_cell_angle_gamma   90.00000000
_symmetry_Int_Tables_number   1
_chemical_formula_structural   Th6Co3C120(N3O8)4
_chemical_formula_sum   'Th6 Co3 C120 N12 O32'
_cell_volume   3994.47613813
_cell_formula_units_Z   1
loop_
 _symmetry_equiv_pos_site_id
 _symmetry_equiv_pos_as_xyz
  1  'x, y, z'
loop_
 _atom_site_type_symbol
 _atom_site_label
 _atom_site_symmetry_multiplicity
 _atom_site_fract_x
 _atom_site_fract_y
 _atom_site_fract_z
 _atom_site_occupancy
 _atom_site_charge
Th  Th1  1  0.17432000  0.00000000  0.00000000  1.0 2.3498846521
Th  Th2  1  0.82568000  0.00000000  0.00000000  1.0 2.3498846521
Th  Th3  1  0.00000000  0.17432000  0.00000000  1.0 2.3498846521
Th  Th4  1  0.00000000  0.82568000  0.00000000  1.0 2.3498846521
Th  Th5  1  0.00000000  0.00000000  0.17432000  1.0 2.3498846521
Th  Th6  1  0.00000000  0.00000000  0.82568000  1.0 2.3498846521
Co  Co1  1  0.50000000  0.00000000  0.50000000  1.0 0.5728690853
Co  Co2  1  0.50000000  0.50000000  0.00000000  1.0 0.5758660068
Co  Co3  1  0.00000000  0.50000000  0.50000000  1.0 0.5728690853
C  C1  1  0.35260000  0.95020000  0.72490000  1.0 -0.0164961446
C  C2  1  0.41240000  0.95030000  0.66000000  1.0 0.0282171072
C  C3  1  0.64740000  0.04980000  0.72490000  1.0 -0.0164961446
C  C4  1  0.58760000  0.04970000  0.66000000  1.0 0.0282171072
C  C5  1  0.64740000  0.95020000  0.27510000  1.0 -0.0164961446
C  C6  1  0.58760000  0.95030000  0.34000000  1.0 0.0282171072
C  C7  1  0.35260000  0.04980000  0.27510000  1.0 -0.0164961446
C  C8  1  0.41240000  0.04970000  0.34000000  1.0 0.0282171072
C  C9  1  0.72490000  0.35260000  0.95020000  1.0 -0.0164961446
C  C10  1  0.66000000  0.41240000  0.95030000  1.0 0.0282171072
C  C11  1  0.72490000  0.64740000  0.04980000  1.0 -0.0164961446
C  C12  1  0.66000000  0.58760000  0.04970000  1.0 0.0282171072
C  C13  1  0.27510000  0.64740000  0.95020000  1.0 -0.0164961446
C  C14  1  0.34000000  0.58760000  0.95030000  1.0 0.0282171072
C  C15  1  0.27510000  0.35260000  0.04980000  1.0 -0.0164961446
C  C16  1  0.34000000  0.41240000  0.04970000  1.0 0.0282171072
C  C17  1  0.95020000  0.72490000  0.35260000  1.0 -0.0164961446
C  C18  1  0.95030000  0.66000000  0.41240000  1.0 0.0282171072
C  C19  1  0.04980000  0.72490000  0.64740000  1.0 -0.0164961446
C  C20  1  0.04970000  0.66000000  0.58760000  1.0 0.0282171072
C  C21  1  0.95020000  0.27510000  0.64740000  1.0 -0.0164961446
C  C22  1  0.95030000  0.34000000  0.58760000  1.0 0.0282171072
C  C23  1  0.04980000  0.27510000  0.35260000  1.0 -0.0164961446
C  C24  1  0.04970000  0.34000000  0.41240000  1.0 0.0282171072
C  C25  1  0.95020000  0.35260000  0.27510000  1.0 -0.0164961446
C  C26  1  0.95030000  0.41240000  0.34000000  1.0 0.0282171072
C  C27  1  0.04980000  0.64740000  0.27510000  1.0 -0.0164961446
C  C28  1  0.04970000  0.58760000  0.34000000  1.0 0.0282171072
C  C29  1  0.95020000  0.64740000  0.72490000  1.0 -0.0164961446
C  C30  1  0.95030000  0.58760000  0.66000000  1.0 0.0282171072
C  C31  1  0.04980000  0.35260000  0.72490000  1.0 -0.0164961446
C  C32  1  0.04970000  0.41240000  0.66000000  1.0 0.0282171072
C  C33  1  0.35260000  0.72490000  0.04980000  1.0 -0.0164961446
C  C34  1  0.41240000  0.66000000  0.04970000  1.0 0.0282171072
C  C35  1  0.64740000  0.72490000  0.95020000  1.0 -0.0164961446
C  C36  1  0.58760000  0.66000000  0.95030000  1.0 0.0282171072
C  C37  1  0.64740000  0.27510000  0.04980000  1.0 -0.0164961446
C  C38  1  0.58760000  0.34000000  0.04970000  1.0 0.0282171072
C  C39  1  0.35260000  0.27510000  0.95020000  1.0 -0.0164961446
C  C40  1  0.41240000  0.34000000  0.95030000  1.0 0.0282171072
C  C41  1  0.72490000  0.95020000  0.64740000  1.0 -0.0164961446
C  C42  1  0.66000000  0.95030000  0.58760000  1.0 0.0282171072
C  C43  1  0.72490000  0.04980000  0.35260000  1.0 -0.0164961446
C  C44  1  0.66000000  0.04970000  0.41240000  1.0 0.0282171072
C  C45  1  0.27510000  0.95020000  0.35260000  1.0 -0.0164961446
C  C46  1  0.34000000  0.95030000  0.41240000  1.0 0.0282171072
C  C47  1  0.27510000  0.04980000  0.64740000  1.0 -0.0164961446
C  C48  1  0.34000000  0.04970000  0.58760000  1.0 0.0282171072
C  C49  1  0.64740000  0.04980000  0.27510000  1.0 -0.0164961446
C  C50  1  0.58760000  0.04970000  0.34000000  1.0 0.0282171072
C  C51  1  0.35260000  0.95020000  0.27510000  1.0 -0.0164961446
C  C52  1  0.41240000  0.95030000  0.34000000  1.0 0.0282171072
C  C53  1  0.35260000  0.04980000  0.72490000  1.0 -0.0164961446
C  C54  1  0.41240000  0.04970000  0.66000000  1.0 0.0282171072
C  C55  1  0.64740000  0.95020000  0.72490000  1.0 -0.0164961446
C  C56  1  0.58760000  0.95030000  0.66000000  1.0 0.0282171072
C  C57  1  0.27510000  0.64740000  0.04980000  1.0 -0.0164961446
C  C58  1  0.34000000  0.58760000  0.04970000  1.0 0.0282171072
C  C59  1  0.27510000  0.35260000  0.95020000  1.0 -0.0164961446
C  C60  1  0.34000000  0.41240000  0.95030000  1.0 0.0282171072
C  C61  1  0.72490000  0.35260000  0.04980000  1.0 -0.0164961446
C  C62  1  0.66000000  0.41240000  0.04970000  1.0 0.0282171072
C  C63  1  0.72490000  0.64740000  0.95020000  1.0 -0.0164961446
C  C64  1  0.66000000  0.58760000  0.95030000  1.0 0.0282171072
C  C65  1  0.04980000  0.27510000  0.64740000  1.0 -0.0164961446
C  C66  1  0.04970000  0.34000000  0.58760000  1.0 0.0282171072
C  C67  1  0.95020000  0.27510000  0.35260000  1.0 -0.0164961446
C  C68  1  0.95030000  0.34000000  0.41240000  1.0 0.0282171072
C  C69  1  0.04980000  0.72490000  0.35260000  1.0 -0.0164961446
C  C70  1  0.04970000  0.66000000  0.41240000  1.0 0.0282171072
C  C71  1  0.95020000  0.72490000  0.64740000  1.0 -0.0164961446
C  C72  1  0.95030000  0.66000000  0.58760000  1.0 0.0282171072
C  C73  1  0.04980000  0.64740000  0.72490000  1.0 -0.0164961446
C  C74  1  0.04970000  0.58760000  0.66000000  1.0 0.0282171072
C  C75  1  0.95020000  0.35260000  0.72490000  1.0 -0.0164961446
C  C76  1  0.95030000  0.41240000  0.66000000  1.0 0.0282171072
C  C77  1  0.04980000  0.35260000  0.27510000  1.0 -0.0164961446
C  C78  1  0.04970000  0.41240000  0.34000000  1.0 0.0282171072
C  C79  1  0.95020000  0.64740000  0.27510000  1.0 -0.0164961446
C  C80  1  0.95030000  0.58760000  0.34000000  1.0 0.0282171072
C  C81  1  0.64740000  0.27510000  0.95020000  1.0 -0.0164961446
C  C82  1  0.58760000  0.34000000  0.95030000  1.0 0.0282171072
C  C83  1  0.35260000  0.27510000  0.04980000  1.0 -0.0164961446
C  C84  1  0.41240000  0.34000000  0.04970000  1.0 0.0282171072
C  C85  1  0.35260000  0.72490000  0.95020000  1.0 -0.0164961446
C  C86  1  0.41240000  0.66000000  0.95030000  1.0 0.0282171072
C  C87  1  0.64740000  0.72490000  0.04980000  1.0 -0.0164961446
C  C88  1  0.58760000  0.66000000  0.04970000  1.0 0.0282171072
C  C89  1  0.27510000  0.04980000  0.35260000  1.0 -0.0164961446
C  C90  1  0.34000000  0.04970000  0.41240000  1.0 0.0282171072
C  C91  1  0.27510000  0.95020000  0.64740000  1.0 -0.0164961446
C  C92  1  0.34000000  0.95030000  0.58760000  1.0 0.0282171072
C  C93  1  0.72490000  0.04980000  0.64740000  1.0 -0.0164961446
C  C94  1  0.66000000  0.04970000  0.58760000  1.0 0.0282171072
C  C95  1  0.72490000  0.95020000  0.35260000  1.0 -0.0164961446
C  C96  1  0.66000000  0.95030000  0.41240000  1.0 0.0282171072
C  C97  1  0.28340000  0.00000000  0.71660000  1.0 0.0139463195
C  C98  1  0.21690000  0.00000000  0.78310000  1.0 0.640873902
C  C99  1  0.71660000  0.00000000  0.71660000  1.0 0.0139463195
C  C100  1  0.78310000  0.00000000  0.78310000  1.0 0.640873902
C  C101  1  0.71660000  0.00000000  0.28340000  1.0 0.0139463195
C  C102  1  0.78310000  0.00000000  0.21690000  1.0 0.640873902
C  C103  1  0.28340000  0.00000000  0.28340000  1.0 0.0163829608
C  C104  1  0.21690000  0.00000000  0.21690000  1.0 0.640873902
C  C105  1  0.71660000  0.28340000  0.00000000  1.0 0.0163829608
C  C106  1  0.78310000  0.21690000  0.00000000  1.0 0.640873902
C  C107  1  0.71660000  0.71660000  0.00000000  1.0 0.0163829608
C  C108  1  0.78310000  0.78310000  0.00000000  1.0 0.640873902
C  C109  1  0.28340000  0.71660000  0.00000000  1.0 0.0163829608
C  C110  1  0.21690000  0.78310000  0.00000000  1.0 0.640873902
C  C111  1  0.28340000  0.28340000  0.00000000  1.0 0.0163829608
C  C112  1  0.21690000  0.21690000  0.00000000  1.0 0.640873902
C  C113  1  0.00000000  0.71660000  0.28340000  1.0 0.0139463195
C  C114  1  0.00000000  0.78310000  0.21690000  1.0 0.640873902
C  C115  1  0.00000000  0.71660000  0.71660000  1.0 0.0139463195
C  C116  1  0.00000000  0.78310000  0.78310000  1.0 0.640873902
C  C117  1  0.00000000  0.28340000  0.71660000  1.0 0.0139463195
C  C118  1  0.00000000  0.21690000  0.78310000  1.0 0.640873902
C  C119  1  0.00000000  0.28340000  0.28340000  1.0 0.0163829608
C  C120  1  0.00000000  0.21690000  0.21690000  1.0 0.640873902
N  N1  1  0.40630000  0.00000000  0.59370000  1.0 -0.1460516026
N  N2  1  0.59370000  0.00000000  0.59370000  1.0 -0.1460516026
N  N3  1  0.59370000  0.00000000  0.40630000  1.0 -0.1460516026
N  N4  1  0.40630000  0.00000000  0.40630000  1.0 -0.1460516026
N  N5  1  0.59370000  0.40630000  0.00000000  1.0 -0.1460516026
N  N6  1  0.59370000  0.59370000  0.00000000  1.0 -0.1460516026
N  N7  1  0.40630000  0.59370000  0.00000000  1.0 -0.1460516026
N  N8  1  0.40630000  0.40630000  0.00000000  1.0 -0.1460516026
N  N9  1  0.00000000  0.59370000  0.40630000  1.0 -0.1460516026
N  N10  1  0.00000000  0.59370000  0.59370000  1.0 -0.1460516026
N  N11  1  0.00000000  0.40630000  0.59370000  1.0 -0.1460516026
N  N12  1  0.00000000  0.40630000  0.40630000  1.0 -0.1460516026
O  O1  1  0.08540000  0.08540000  0.91460000  1.0 -1.0833494584
O  O2  1  0.91460000  0.91460000  0.91460000  1.0 -1.0833494584
O  O3  1  0.91460000  0.08540000  0.08540000  1.0 -1.0833494584
O  O4  1  0.08540000  0.91460000  0.08540000  1.0 -1.0833494584
O  O5  1  0.08540000  0.08540000  0.08540000  1.0 -1.0833494584
O  O6  1  0.91460000  0.91460000  0.08540000  1.0 -1.0833494584
O  O7  1  0.08540000  0.91460000  0.91460000  1.0 -1.0833494584
O  O8  1  0.91460000  0.08540000  0.91460000  1.0 -1.0833494584
O  O9  1  0.24270000  0.00000000  0.85880000  1.0 -0.5765235792
O  O10  1  0.75730000  0.00000000  0.85880000  1.0 -0.5765235792
O  O11  1  0.75730000  0.00000000  0.14120000  1.0 -0.5765235792
O  O12  1  0.24270000  0.00000000  0.14120000  1.0 -0.5765235792
O  O13  1  0.85880000  0.24270000  0.00000000  1.0 -0.5765235792
O  O14  1  0.85880000  0.75730000  0.00000000  1.0 -0.5765235792
O  O15  1  0.14120000  0.75730000  0.00000000  1.0 -0.5765235792
O  O16  1  0.14120000  0.24270000  0.00000000  1.0 -0.5765235792
O  O17  1  0.00000000  0.85880000  0.24270000  1.0 -0.5765235792
O  O18  1  0.00000000  0.85880000  0.75730000  1.0 -0.5765235792
O  O19  1  0.00000000  0.14120000  0.75730000  1.0 -0.5765235792
O  O20  1  0.00000000  0.14120000  0.24270000  1.0 -0.5765235792
O  O21  1  0.00000000  0.24270000  0.14120000  1.0 -0.5765235792
O  O22  1  0.00000000  0.75730000  0.14120000  1.0 -0.5765235792
O  O23  1  0.00000000  0.75730000  0.85880000  1.0 -0.5765235792
O  O24  1  0.00000000  0.24270000  0.85880000  1.0 -0.5765235792
O  O25  1  0.24270000  0.85880000  0.00000000  1.0 -0.5765235792
O  O26  1  0.75730000  0.85880000  0.00000000  1.0 -0.5765235792
O  O27  1  0.75730000  0.14120000  0.00000000  1.0 -0.5765235792
O  O28  1  0.24270000  0.14120000  0.00000000  1.0 -0.5765235792
O  O29  1  0.85880000  0.00000000  0.75730000  1.0 -0.5765235792
O  O30  1  0.85880000  0.00000000  0.24270000  1.0 -0.5765235792
O  O31  1  0.14120000  0.00000000  0.24270000  1.0 -0.5765235792
O  O32  1  0.14120000  0.00000000  0.75730000  1.0 -0.5765235792
