# DDEC6 charges by PACMAN v1.1 (https://github.com/mtap-research/PACMAN-charge/)
data_YODNIR_ASR_pacman
_symmetry_space_group_name_H-M   'P 1'
_cell_length_a   15.88240000
_cell_length_b   15.88240000
_cell_length_c   15.88240000
_cell_angle_alpha   90.00000000
_cell_angle_beta   90.00000000
_cell_angle_gamma   90.00000000
_symmetry_Int_Tables_number   1
_chemical_formula_structural   Th6Ni3C120(N3O8)4
_chemical_formula_sum   'Th6 Ni3 C120 N12 O32'
_cell_volume   4006.34540210
_cell_formula_units_Z   1
loop_
 _symmetry_equiv_pos_site_id
 _symmetry_equiv_pos_as_xyz
  1  'x, y, z'
loop_
 _atom_site_type_symbol
 _atom_site_label
 _atom_site_symmetry_multiplicity
 _atom_site_fract_x
 _atom_site_fract_y
 _atom_site_fract_z
 _atom_site_occupancy
 _atom_site_charge
Th  Th1  1  0.82570000  0.00000000  0.00000000  1.0 2.3688037327
Th  Th2  1  0.17430000  0.00000000  0.00000000  1.0 2.3688037327
Th  Th3  1  0.00000000  0.82570000  0.00000000  1.0 2.3639889291
Th  Th4  1  0.00000000  0.17430000  0.00000000  1.0 2.3688037327
Th  Th5  1  0.00000000  0.00000000  0.82570000  1.0 2.3639889291
Th  Th6  1  0.00000000  0.00000000  0.17430000  1.0 2.3688037327
Ni  Ni1  1  0.50000000  0.50000000  0.00000000  1.0 0.2670000823
Ni  Ni2  1  0.00000000  0.50000000  0.50000000  1.0 0.2670000823
Ni  Ni3  1  0.50000000  0.00000000  0.50000000  1.0 0.2670000823
C  C1  1  0.58650000  0.33870000  0.94670000  1.0 0.0139677277
C  C2  1  0.64720000  0.27400000  0.94870000  1.0 -0.0091561009
C  C3  1  0.41350000  0.66130000  0.94670000  1.0 0.0139677277
C  C4  1  0.35280000  0.72600000  0.94870000  1.0 -0.0091561009
C  C5  1  0.41350000  0.33870000  0.05330000  1.0 0.0139677277
C  C6  1  0.35280000  0.27400000  0.05130000  1.0 -0.0091561009
C  C7  1  0.58650000  0.66130000  0.05330000  1.0 0.0139677277
C  C8  1  0.64720000  0.72600000  0.05130000  1.0 -0.0091561009
C  C9  1  0.94670000  0.58650000  0.33870000  1.0 0.0139677277
C  C10  1  0.94870000  0.64720000  0.27400000  1.0 -0.0091561009
C  C11  1  0.94670000  0.41350000  0.66130000  1.0 0.0139677277
C  C12  1  0.94870000  0.35280000  0.72600000  1.0 -0.0091561009
C  C13  1  0.05330000  0.41350000  0.33870000  1.0 0.0139677277
C  C14  1  0.05130000  0.35280000  0.27400000  1.0 -0.0091561009
C  C15  1  0.05330000  0.58650000  0.66130000  1.0 0.0139677277
C  C16  1  0.05130000  0.64720000  0.72600000  1.0 -0.0091561009
C  C17  1  0.33870000  0.94670000  0.58650000  1.0 0.0139677277
C  C18  1  0.27400000  0.94870000  0.64720000  1.0 -0.0091561009
C  C19  1  0.66130000  0.94670000  0.41350000  1.0 0.0139677277
C  C20  1  0.72600000  0.94870000  0.35280000  1.0 -0.0091561009
C  C21  1  0.33870000  0.05330000  0.41350000  1.0 0.0139677277
C  C22  1  0.27400000  0.05130000  0.35280000  1.0 -0.0091561009
C  C23  1  0.66130000  0.05330000  0.58650000  1.0 0.0139677277
C  C24  1  0.72600000  0.05130000  0.64720000  1.0 -0.0091561009
C  C25  1  0.33870000  0.58650000  0.05330000  1.0 0.0139677277
C  C26  1  0.27400000  0.64720000  0.05130000  1.0 -0.0091561009
C  C27  1  0.66130000  0.41350000  0.05330000  1.0 0.0139677277
C  C28  1  0.72600000  0.35280000  0.05130000  1.0 -0.0091561009
C  C29  1  0.33870000  0.41350000  0.94670000  1.0 0.0139677277
C  C30  1  0.27400000  0.35280000  0.94870000  1.0 -0.0091561009
C  C31  1  0.66130000  0.58650000  0.94670000  1.0 0.0139677277
C  C32  1  0.72600000  0.64720000  0.94870000  1.0 -0.0091561009
C  C33  1  0.58650000  0.94670000  0.66130000  1.0 0.0139677277
C  C34  1  0.64720000  0.94870000  0.72600000  1.0 -0.0091561009
C  C35  1  0.41350000  0.94670000  0.33870000  1.0 0.0139677277
C  C36  1  0.35280000  0.94870000  0.27400000  1.0 -0.0091561009
C  C37  1  0.41350000  0.05330000  0.66130000  1.0 0.0139677277
C  C38  1  0.35280000  0.05130000  0.72600000  1.0 -0.0091561009
C  C39  1  0.58650000  0.05330000  0.33870000  1.0 0.0139677277
C  C40  1  0.64720000  0.05130000  0.27400000  1.0 -0.0091561009
C  C41  1  0.94670000  0.33870000  0.41350000  1.0 0.0139677277
C  C42  1  0.94870000  0.27400000  0.35280000  1.0 -0.0091561009
C  C43  1  0.94670000  0.66130000  0.58650000  1.0 0.0139677277
C  C44  1  0.94870000  0.72600000  0.64720000  1.0 -0.0091561009
C  C45  1  0.05330000  0.33870000  0.58650000  1.0 0.0139677277
C  C46  1  0.05130000  0.27400000  0.64720000  1.0 -0.0091561009
C  C47  1  0.05330000  0.66130000  0.41350000  1.0 0.0139677277
C  C48  1  0.05130000  0.72600000  0.35280000  1.0 -0.0091561009
C  C49  1  0.41350000  0.66130000  0.05330000  1.0 0.0139677277
C  C50  1  0.35280000  0.72600000  0.05130000  1.0 -0.0091561009
C  C51  1  0.58650000  0.33870000  0.05330000  1.0 0.0139677277
C  C52  1  0.64720000  0.27400000  0.05130000  1.0 -0.0091561009
C  C53  1  0.58650000  0.66130000  0.94670000  1.0 0.0139677277
C  C54  1  0.64720000  0.72600000  0.94870000  1.0 -0.0091561009
C  C55  1  0.41350000  0.33870000  0.94670000  1.0 0.0139677277
C  C56  1  0.35280000  0.27400000  0.94870000  1.0 -0.0091561009
C  C57  1  0.05330000  0.41350000  0.66130000  1.0 0.0139677277
C  C58  1  0.05130000  0.35280000  0.72600000  1.0 -0.0091561009
C  C59  1  0.05330000  0.58650000  0.33870000  1.0 0.0139677277
C  C60  1  0.05130000  0.64720000  0.27400000  1.0 -0.0091561009
C  C61  1  0.94670000  0.58650000  0.66130000  1.0 0.0139677277
C  C62  1  0.94870000  0.64720000  0.72600000  1.0 -0.0091561009
C  C63  1  0.94670000  0.41350000  0.33870000  1.0 0.0139677277
C  C64  1  0.94870000  0.35280000  0.27400000  1.0 -0.0091561009
C  C65  1  0.66130000  0.05330000  0.41350000  1.0 0.0139677277
C  C66  1  0.72600000  0.05130000  0.35280000  1.0 -0.0091561009
C  C67  1  0.33870000  0.05330000  0.58650000  1.0 0.0139677277
C  C68  1  0.27400000  0.05130000  0.64720000  1.0 -0.0091561009
C  C69  1  0.66130000  0.94670000  0.58650000  1.0 0.0139677277
C  C70  1  0.72600000  0.94870000  0.64720000  1.0 -0.0091561009
C  C71  1  0.33870000  0.94670000  0.41350000  1.0 0.0139677277
C  C72  1  0.27400000  0.94870000  0.35280000  1.0 -0.0091561009
C  C73  1  0.66130000  0.41350000  0.94670000  1.0 0.0139677277
C  C74  1  0.72600000  0.35280000  0.94870000  1.0 -0.0091561009
C  C75  1  0.33870000  0.58650000  0.94670000  1.0 0.0139677277
C  C76  1  0.27400000  0.64720000  0.94870000  1.0 -0.0091561009
C  C77  1  0.66130000  0.58650000  0.05330000  1.0 0.0139677277
C  C78  1  0.72600000  0.64720000  0.05130000  1.0 -0.0091561009
C  C79  1  0.33870000  0.41350000  0.05330000  1.0 0.0139677277
C  C80  1  0.27400000  0.35280000  0.05130000  1.0 -0.0091561009
C  C81  1  0.41350000  0.05330000  0.33870000  1.0 0.0139677277
C  C82  1  0.35280000  0.05130000  0.27400000  1.0 -0.0091561009
C  C83  1  0.58650000  0.05330000  0.66130000  1.0 0.0139677277
C  C84  1  0.64720000  0.05130000  0.72600000  1.0 -0.0091561009
C  C85  1  0.58650000  0.94670000  0.33870000  1.0 0.0139677277
C  C86  1  0.64720000  0.94870000  0.27400000  1.0 -0.0091561009
C  C87  1  0.41350000  0.94670000  0.66130000  1.0 0.0139677277
C  C88  1  0.35280000  0.94870000  0.72600000  1.0 -0.0091561009
C  C89  1  0.05330000  0.66130000  0.58650000  1.0 0.0139677277
C  C90  1  0.05130000  0.72600000  0.64720000  1.0 -0.0091561009
C  C91  1  0.05330000  0.33870000  0.41350000  1.0 0.0139677277
C  C92  1  0.05130000  0.27400000  0.35280000  1.0 -0.0091561009
C  C93  1  0.94670000  0.66130000  0.41350000  1.0 0.0139677277
C  C94  1  0.94870000  0.72600000  0.35280000  1.0 -0.0091561009
C  C95  1  0.94670000  0.33870000  0.58650000  1.0 0.0139677277
C  C96  1  0.94870000  0.27400000  0.64720000  1.0 -0.0091561009
C  C97  1  0.78370000  0.21630000  0.00000000  1.0 0.6475446057
C  C98  1  0.71730000  0.28270000  0.00000000  1.0 0.0262611467
C  C99  1  0.21630000  0.78370000  0.00000000  1.0 0.6475446057
C  C100  1  0.28270000  0.71730000  0.00000000  1.0 0.0262611467
C  C101  1  0.21630000  0.21630000  0.00000000  1.0 0.6475446057
C  C102  1  0.28270000  0.28270000  0.00000000  1.0 0.0262611467
C  C103  1  0.78370000  0.78370000  0.00000000  1.0 0.6475446057
C  C104  1  0.71730000  0.71730000  0.00000000  1.0 0.0262611467
C  C105  1  0.00000000  0.78370000  0.21630000  1.0 0.6475446057
C  C106  1  0.00000000  0.71730000  0.28270000  1.0 0.0262611467
C  C107  1  0.00000000  0.21630000  0.78370000  1.0 0.6475446057
C  C108  1  0.00000000  0.28270000  0.71730000  1.0 0.0249540533
C  C109  1  0.00000000  0.21630000  0.21630000  1.0 0.6475446057
C  C110  1  0.00000000  0.28270000  0.28270000  1.0 0.0262611467
C  C111  1  0.00000000  0.78370000  0.78370000  1.0 0.6475446057
C  C112  1  0.00000000  0.71730000  0.71730000  1.0 0.0262611467
C  C113  1  0.21630000  0.00000000  0.78370000  1.0 0.6475446057
C  C114  1  0.28270000  0.00000000  0.71730000  1.0 0.0249540533
C  C115  1  0.78370000  0.00000000  0.21630000  1.0 0.6475446057
C  C116  1  0.71730000  0.00000000  0.28270000  1.0 0.0262611467
C  C117  1  0.21630000  0.00000000  0.21630000  1.0 0.6475446057
C  C118  1  0.28270000  0.00000000  0.28270000  1.0 0.0249540533
C  C119  1  0.78370000  0.00000000  0.78370000  1.0 0.6475446057
C  C120  1  0.71730000  0.00000000  0.71730000  1.0 0.0262611467
N  N1  1  0.59340000  0.40660000  0.00000000  1.0 -0.0684069401
N  N2  1  0.40660000  0.59340000  0.00000000  1.0 -0.0684069401
N  N3  1  0.40660000  0.40660000  0.00000000  1.0 -0.0684069401
N  N4  1  0.59340000  0.59340000  0.00000000  1.0 -0.0684069401
N  N5  1  0.00000000  0.59340000  0.40660000  1.0 -0.0684069401
N  N6  1  0.00000000  0.40660000  0.59340000  1.0 -0.0684069401
N  N7  1  0.00000000  0.40660000  0.40660000  1.0 -0.0684069401
N  N8  1  0.00000000  0.59340000  0.59340000  1.0 -0.0684069401
N  N9  1  0.40660000  0.00000000  0.59340000  1.0 -0.0684069401
N  N10  1  0.59340000  0.00000000  0.40660000  1.0 -0.0684069401
N  N11  1  0.40660000  0.00000000  0.40660000  1.0 -0.0684069401
N  N12  1  0.59340000  0.00000000  0.59340000  1.0 -0.0684069401
O  O1  1  0.91470000  0.08530000  0.91470000  1.0 -1.0708297857
O  O2  1  0.08530000  0.91470000  0.91470000  1.0 -1.0708297857
O  O3  1  0.08530000  0.08530000  0.08530000  1.0 -1.0708297857
O  O4  1  0.91470000  0.91470000  0.08530000  1.0 -1.0708297857
O  O5  1  0.08530000  0.91470000  0.08530000  1.0 -1.0708297857
O  O6  1  0.91470000  0.08530000  0.08530000  1.0 -1.0708297857
O  O7  1  0.08530000  0.08530000  0.91470000  1.0 -1.0708297857
O  O8  1  0.91470000  0.91470000  0.91470000  1.0 -1.0708297857
O  O9  1  0.75800000  0.14090000  0.00000000  1.0 -0.5803907209
O  O10  1  0.24200000  0.85910000  0.00000000  1.0 -0.5803907209
O  O11  1  0.24200000  0.14090000  0.00000000  1.0 -0.5803907209
O  O12  1  0.75800000  0.85910000  0.00000000  1.0 -0.5803907209
O  O13  1  0.00000000  0.75800000  0.14090000  1.0 -0.5803907209
O  O14  1  0.00000000  0.24200000  0.85910000  1.0 -0.5803907209
O  O15  1  0.00000000  0.24200000  0.14090000  1.0 -0.5803907209
O  O16  1  0.00000000  0.75800000  0.85910000  1.0 -0.5803907209
O  O17  1  0.14090000  0.00000000  0.75800000  1.0 -0.5803907209
O  O18  1  0.85910000  0.00000000  0.24200000  1.0 -0.5803907209
O  O19  1  0.14090000  0.00000000  0.24200000  1.0 -0.5803907209
O  O20  1  0.85910000  0.00000000  0.75800000  1.0 -0.5803907209
O  O21  1  0.14090000  0.75800000  0.00000000  1.0 -0.5803907209
O  O22  1  0.85910000  0.24200000  0.00000000  1.0 -0.5803907209
O  O23  1  0.14090000  0.24200000  0.00000000  1.0 -0.5803907209
O  O24  1  0.85910000  0.75800000  0.00000000  1.0 -0.5803907209
O  O25  1  0.75800000  0.00000000  0.85910000  1.0 -0.5803907209
O  O26  1  0.24200000  0.00000000  0.14090000  1.0 -0.5803907209
O  O27  1  0.24200000  0.00000000  0.85910000  1.0 -0.5803907209
O  O28  1  0.75800000  0.00000000  0.14090000  1.0 -0.5803907209
O  O29  1  0.00000000  0.14090000  0.24200000  1.0 -0.5803907209
O  O30  1  0.00000000  0.85910000  0.75800000  1.0 -0.5803907209
O  O31  1  0.00000000  0.14090000  0.75800000  1.0 -0.5803907209
O  O32  1  0.00000000  0.85910000  0.24200000  1.0 -0.5803907209
