# DDEC6 charges by PACMAN v1.1 (https://github.com/mtap-research/PACMAN-charge/)
data_YODZIB_ASR_pacman
_symmetry_space_group_name_H-M   'P 1'
_cell_length_a   20.45610000
_cell_length_b   19.38360000
_cell_length_c   10.32660000
_cell_angle_alpha   80.81380000
_cell_angle_beta   69.29560000
_cell_angle_gamma   29.89050000
_symmetry_Int_Tables_number   1
_chemical_formula_structural   CoH26C26(NO3)4
_chemical_formula_sum   'Co2 H52 C52 N8 O24'
_cell_volume   1811.53251431
_cell_formula_units_Z   2
loop_
 _symmetry_equiv_pos_site_id
 _symmetry_equiv_pos_as_xyz
  1  'x, y, z'
loop_
 _atom_site_type_symbol
 _atom_site_label
 _atom_site_symmetry_multiplicity
 _atom_site_fract_x
 _atom_site_fract_y
 _atom_site_fract_z
 _atom_site_occupancy
 _atom_site_charge
Co  Co1  1  0.50000000  0.50000000  0.50000000  1.0 0.9999064582
Co  Co2  1  0.75000000  0.75000000  0.75000000  1.0 0.9999064582
H  H1  1  0.09740000  0.47120000  0.10060000  1.0 0.1414423997
H  H2  1  0.47120000  0.09740000  0.33080000  1.0 0.1414423997
H  H3  1  0.33080000  0.10060000  0.47120000  1.0 0.1414423997
H  H4  1  0.10060000  0.33080000  0.09740000  1.0 0.1414423997
H  H5  1  0.23040000  0.31600000  0.98920000  1.0 0.1414423997
H  H6  1  0.31600000  0.23040000  0.46440000  1.0 0.1414423997
H  H7  1  0.46440000  0.98920000  0.31600000  1.0 0.1414423997
H  H8  1  0.98920000  0.46440000  0.23040000  1.0 0.1414423997
H  H9  1  0.30800000  0.32800000  0.09720000  1.0 0.2317157837
H  H10  1  0.32800000  0.30800000  0.26680000  1.0 0.2317157837
H  H11  1  0.26680000  0.09720000  0.32800000  1.0 0.2317157837
H  H12  1  0.09720000  0.26680000  0.30800000  1.0 0.2317157837
H  H13  1  0.44990000  0.11050000  0.02830000  1.0 0.1414423997
H  H14  1  0.11050000  0.44990000  0.41130000  1.0 0.1414423997
H  H15  1  0.41130000  0.02830000  0.11050000  1.0 0.1414423997
H  H16  1  0.02830000  0.41130000  0.44990000  1.0 0.1414423997
H  H17  1  0.12550000  0.42810000  0.25810000  1.0 0.1414423997
H  H18  1  0.42810000  0.12550000  0.18830000  1.0 0.1414423997
H  H19  1  0.18830000  0.25810000  0.42810000  1.0 0.1414423997
H  H20  1  0.25810000  0.18830000  0.12550000  1.0 0.1414423997
H  H21  1  0.44080000  0.38900000  0.26820000  1.0 0.1454881823
H  H22  1  0.38900000  0.44080000  0.90200000  1.0 0.1454881823
H  H23  1  0.90200000  0.26820000  0.38900000  1.0 0.1454881823
H  H24  1  0.26820000  0.90200000  0.44080000  1.0 0.1454881823
H  H25  1  0.50860000  0.50860000  0.99140000  1.0 0.130841397
H  H26  1  0.99140000  0.99140000  0.50860000  1.0 0.130841397
H  H27  1  0.15260000  0.77880000  0.14940000  1.0 0.1414423997
H  H28  1  0.77880000  0.15260000  0.91920000  1.0 0.1414423997
H  H29  1  0.91920000  0.14940000  0.77880000  1.0 0.1414423997
H  H30  1  0.14940000  0.91920000  0.15260000  1.0 0.1414423997
H  H31  1  0.01960000  0.93400000  0.26080000  1.0 0.1414423997
H  H32  1  0.93400000  0.01960000  0.78560000  1.0 0.1414423997
H  H33  1  0.78560000  0.26080000  0.93400000  1.0 0.1414423997
H  H34  1  0.26080000  0.78560000  0.01960000  1.0 0.1414423997
H  H35  1  0.94200000  0.92200000  0.15280000  1.0 0.2317157837
H  H36  1  0.92200000  0.94200000  0.98320000  1.0 0.2317157837
H  H37  1  0.98320000  0.15280000  0.92200000  1.0 0.2317157837
H  H38  1  0.15280000  0.98320000  0.94200000  1.0 0.2317157837
H  H39  1  0.80010000  0.13950000  0.22170000  1.0 0.1414423997
H  H40  1  0.13950000  0.80010000  0.83870000  1.0 0.1414423997
H  H41  1  0.83870000  0.22170000  0.13950000  1.0 0.1414423997
H  H42  1  0.22170000  0.83870000  0.80010000  1.0 0.1414423997
H  H43  1  0.12450000  0.82190000  0.99190000  1.0 0.1414423997
H  H44  1  0.82190000  0.12450000  0.06170000  1.0 0.1414423997
H  H45  1  0.06170000  0.99190000  0.82190000  1.0 0.1414423997
H  H46  1  0.99190000  0.06170000  0.12450000  1.0 0.1414423997
H  H47  1  0.80920000  0.86100000  0.98180000  1.0 0.1454881823
H  H48  1  0.86100000  0.80920000  0.34800000  1.0 0.1454881823
H  H49  1  0.34800000  0.98180000  0.86100000  1.0 0.1454881823
H  H50  1  0.98180000  0.34800000  0.80920000  1.0 0.1454881823
H  H51  1  0.74140000  0.74140000  0.25860000  1.0 0.130841397
H  H52  1  0.25860000  0.25860000  0.74140000  1.0 0.130841397
C  C1  1  0.16970000  0.37130000  0.09210000  1.0 -0.1856193521
C  C2  1  0.37130000  0.16970000  0.36690000  1.0 -0.1856193521
C  C3  1  0.36690000  0.09210000  0.37130000  1.0 -0.1856193521
C  C4  1  0.09210000  0.36690000  0.16970000  1.0 -0.1856193521
C  C5  1  0.38122000  0.15982000  0.12878000  1.0 -0.0490571258
C  C6  1  0.15982000  0.38122000  0.33018000  1.0 -0.0490571258
C  C7  1  0.33018000  0.12878000  0.15982000  1.0 -0.0490571258
C  C8  1  0.12878000  0.33018000  0.38122000  1.0 -0.0490571258
C  C9  1  0.48160000  0.44880000  0.14400000  1.0 -0.0200223324
C  C10  1  0.44880000  0.48160000  0.92560000  1.0 -0.0200223324
C  C11  1  0.92560000  0.14400000  0.44880000  1.0 -0.0200223324
C  C12  1  0.14400000  0.92560000  0.48160000  1.0 -0.0200223324
C  C13  1  0.44320000  0.41180000  0.18220000  1.0 -0.1267143039
C  C14  1  0.41180000  0.44320000  0.96280000  1.0 -0.1267143039
C  C15  1  0.96280000  0.18220000  0.41180000  1.0 -0.1267143039
C  C16  1  0.18220000  0.96280000  0.44320000  1.0 -0.1267143039
C  C17  1  0.40880000  0.40880000  0.09120000  1.0 -0.0200223324
C  C18  1  0.09120000  0.09120000  0.40880000  1.0 -0.0200223324
C  C19  1  0.48350000  0.48350000  0.01650000  1.0 -0.1494771202
C  C20  1  0.01650000  0.01650000  0.48350000  1.0 -0.1494771202
C  C21  1  0.51824000  0.45284000  0.24296000  1.0 0.5407113733
C  C22  1  0.45284000  0.51824000  0.78596000  1.0 0.5407113733
C  C23  1  0.78596000  0.24296000  0.45284000  1.0 0.5407113733
C  C24  1  0.24296000  0.78596000  0.51824000  1.0 0.5407113733
C  C25  1  0.36800000  0.36800000  0.13200000  1.0 0.5300982373
C  C26  1  0.13200000  0.13200000  0.36800000  1.0 0.5300982373
C  C27  1  0.08030000  0.87870000  0.15790000  1.0 -0.1856193521
C  C28  1  0.87870000  0.08030000  0.88310000  1.0 -0.1856193521
C  C29  1  0.88310000  0.15790000  0.87870000  1.0 -0.1856193521
C  C30  1  0.15790000  0.88310000  0.08030000  1.0 -0.1856193521
C  C31  1  0.86878000  0.09018000  0.12122000  1.0 -0.0490571258
C  C32  1  0.09018000  0.86878000  0.91982000  1.0 -0.0490571258
C  C33  1  0.91982000  0.12122000  0.09018000  1.0 -0.0490571258
C  C34  1  0.12122000  0.91982000  0.86878000  1.0 -0.0490571258
C  C35  1  0.76840000  0.80120000  0.10600000  1.0 -0.0200223324
C  C36  1  0.80120000  0.76840000  0.32440000  1.0 -0.0200223324
C  C37  1  0.32440000  0.10600000  0.80120000  1.0 -0.0200223324
C  C38  1  0.10600000  0.32440000  0.76840000  1.0 -0.0200223324
C  C39  1  0.80680000  0.83820000  0.06780000  1.0 -0.1267143039
C  C40  1  0.83820000  0.80680000  0.28720000  1.0 -0.1267143039
C  C41  1  0.28720000  0.06780000  0.83820000  1.0 -0.1267143039
C  C42  1  0.06780000  0.28720000  0.80680000  1.0 -0.1267143039
C  C43  1  0.84120000  0.84120000  0.15880000  1.0 -0.0200223324
C  C44  1  0.15880000  0.15880000  0.84120000  1.0 -0.0200223324
C  C45  1  0.76650000  0.76650000  0.23350000  1.0 -0.1494771202
C  C46  1  0.23350000  0.23350000  0.76650000  1.0 -0.1494771202
C  C47  1  0.73176000  0.79716000  0.00704000  1.0 0.5407113733
C  C48  1  0.79716000  0.73176000  0.46404000  1.0 0.5407113733
C  C49  1  0.46404000  0.00704000  0.79716000  1.0 0.5407113733
C  C50  1  0.00704000  0.46404000  0.73176000  1.0 0.5407113733
C  C51  1  0.88200000  0.88200000  0.11800000  1.0 0.5300982373
C  C52  1  0.11800000  0.11800000  0.88200000  1.0 0.5300982373
N  N1  1  0.26090000  0.30730000  0.16250000  1.0 0.0337223298
N  N2  1  0.30730000  0.26090000  0.26930000  1.0 0.0337223298
N  N3  1  0.26930000  0.16250000  0.30730000  1.0 0.0337223298
N  N4  1  0.16250000  0.26930000  0.26090000  1.0 0.0337223298
N  N5  1  0.98910000  0.94270000  0.08750000  1.0 0.0337223298
N  N6  1  0.94270000  0.98910000  0.98070000  1.0 0.0337223298
N  N7  1  0.98070000  0.08750000  0.94270000  1.0 0.0337223298
N  N8  1  0.08750000  0.98070000  0.98910000  1.0 0.0337223298
O  O1  1  0.57532000  0.46272000  0.19488000  1.0 -0.5786912662
O  O2  1  0.46272000  0.57532000  0.76708000  1.0 -0.5786912662
O  O3  1  0.76708000  0.19488000  0.46272000  1.0 -0.5786912662
O  O4  1  0.19488000  0.76708000  0.57532000  1.0 -0.5786912662
O  O5  1  0.48984000  0.44544000  0.36936000  1.0 -0.5507658941
O  O6  1  0.44544000  0.48984000  0.69536000  1.0 -0.5507658941
O  O7  1  0.69536000  0.36936000  0.44544000  1.0 -0.5507658941
O  O8  1  0.36936000  0.69536000  0.48984000  1.0 -0.5507658941
O  O9  1  0.32486000  0.38026000  0.05494000  1.0 -0.5022336987
O  O10  1  0.38026000  0.32486000  0.23994000  1.0 -0.5022336987
O  O11  1  0.23994000  0.05494000  0.38026000  1.0 -0.5022336987
O  O12  1  0.05494000  0.23994000  0.32486000  1.0 -0.5022336987
O  O13  1  0.67468000  0.78728000  0.05512000  1.0 -0.5786912662
O  O14  1  0.78728000  0.67468000  0.48292000  1.0 -0.5786912662
O  O15  1  0.48292000  0.05512000  0.78728000  1.0 -0.5786912662
O  O16  1  0.05512000  0.48292000  0.67468000  1.0 -0.5786912662
O  O17  1  0.76016000  0.80456000  0.88064000  1.0 -0.5507658941
O  O18  1  0.80456000  0.76016000  0.55464000  1.0 -0.5507658941
O  O19  1  0.55464000  0.88064000  0.80456000  1.0 -0.5507658941
O  O20  1  0.88064000  0.55464000  0.76016000  1.0 -0.5507658941
O  O21  1  0.92514000  0.86974000  0.19506000  1.0 -0.5022336987
O  O22  1  0.86974000  0.92514000  0.01006000  1.0 -0.5022336987
O  O23  1  0.01006000  0.19506000  0.86974000  1.0 -0.5022336987
O  O24  1  0.19506000  0.01006000  0.92514000  1.0 -0.5022336987
