# DDEC6 charges by PACMAN v1.1 (https://github.com/mtap-research/PACMAN-charge/)
data_YOGKEM_ASR_pacman
_symmetry_space_group_name_H-M   'P 1'
_cell_length_a   9.76600000
_cell_length_b   26.84600000
_cell_length_c   27.17800000
_cell_angle_alpha   90.00000000
_cell_angle_beta   90.00000000
_cell_angle_gamma   90.00000000
_symmetry_Int_Tables_number   1
_chemical_formula_structural   Zn3H21C47O16
_chemical_formula_sum   'Zn12 H84 C188 O64'
_cell_volume   7125.47466241
_cell_formula_units_Z   4
loop_
 _symmetry_equiv_pos_site_id
 _symmetry_equiv_pos_as_xyz
  1  'x, y, z'
loop_
 _atom_site_type_symbol
 _atom_site_label
 _atom_site_symmetry_multiplicity
 _atom_site_fract_x
 _atom_site_fract_y
 _atom_site_fract_z
 _atom_site_occupancy
 _atom_site_charge
Zn  Zn1  1  0.05862000  0.65436000  0.00000000  1.0 0.9812276357
Zn  Zn2  1  0.05862000  0.34564000  0.00000000  1.0 0.9812276357
Zn  Zn3  1  0.94138000  0.15436000  0.50000000  1.0 0.9812276357
Zn  Zn4  1  0.94138000  0.84564000  0.50000000  1.0 0.9812276357
Zn  Zn5  1  0.81392000  0.74961000  0.00000000  1.0 0.9191581004
Zn  Zn6  1  0.81392000  0.25039000  0.00000000  1.0 0.9191581004
Zn  Zn7  1  0.18608000  0.24961000  0.50000000  1.0 0.9191581004
Zn  Zn8  1  0.18608000  0.75039000  0.50000000  1.0 0.9191581004
Zn  Zn9  1  0.09632000  0.50000000  0.26170000  1.0 0.6307150119
Zn  Zn10  1  0.09632000  0.50000000  0.73830000  1.0 0.6307150119
Zn  Zn11  1  0.90368000  0.00000000  0.23830000  1.0 0.6381215148
Zn  Zn12  1  0.90368000  0.00000000  0.76170000  1.0 0.6381215148
H  H1  1  0.36250000  0.75590000  0.00000000  1.0 0.1217108824
H  H2  1  0.36250000  0.24410000  0.00000000  1.0 0.1217108824
H  H3  1  0.63750000  0.25590000  0.50000000  1.0 0.1217108824
H  H4  1  0.63750000  0.74410000  0.50000000  1.0 0.1217108824
H  H5  1  0.09980000  0.87270000  0.00000000  1.0 0.1217108824
H  H6  1  0.09980000  0.12730000  0.00000000  1.0 0.1217108824
H  H7  1  0.90020000  0.37270000  0.50000000  1.0 0.1217108824
H  H8  1  0.90020000  0.62730000  0.50000000  1.0 0.1217108824
H  H9  1  0.96800000  0.60820000  0.14290000  1.0 0.0920835694
H  H10  1  0.96800000  0.39180000  0.85710000  1.0 0.0920835694
H  H11  1  0.03200000  0.10820000  0.35710000  1.0 0.0920835694
H  H12  1  0.03200000  0.89180000  0.64290000  1.0 0.0920835694
H  H13  1  0.03200000  0.89180000  0.35710000  1.0 0.0920835694
H  H14  1  0.03200000  0.10820000  0.64290000  1.0 0.0920835694
H  H15  1  0.96800000  0.39180000  0.14290000  1.0 0.0920835694
H  H16  1  0.96800000  0.60820000  0.85710000  1.0 0.0920835694
H  H17  1  0.69570000  0.72040000  0.13760000  1.0 0.1217108824
H  H18  1  0.69570000  0.27960000  0.86240000  1.0 0.1217108824
H  H19  1  0.30430000  0.22040000  0.36240000  1.0 0.1217108824
H  H20  1  0.30430000  0.77960000  0.63760000  1.0 0.1217108824
H  H21  1  0.30430000  0.77960000  0.36240000  1.0 0.1217108824
H  H22  1  0.30430000  0.22040000  0.63760000  1.0 0.1217108824
H  H23  1  0.69570000  0.27960000  0.13760000  1.0 0.1217108824
H  H24  1  0.69570000  0.72040000  0.86240000  1.0 0.1217108824
H  H25  1  0.50810000  0.89240000  0.00000000  1.0 0.1217108824
H  H26  1  0.50810000  0.10760000  0.00000000  1.0 0.1217108824
H  H27  1  0.49190000  0.39240000  0.50000000  1.0 0.1217108824
H  H28  1  0.49190000  0.60760000  0.50000000  1.0 0.1217108824
H  H29  1  0.72940000  0.64050000  0.26110000  1.0 0.0920835694
H  H30  1  0.72940000  0.35950000  0.73890000  1.0 0.0920835694
H  H31  1  0.27060000  0.14050000  0.23890000  1.0 0.0920835694
H  H32  1  0.27060000  0.85950000  0.76110000  1.0 0.0920835694
H  H33  1  0.27060000  0.85950000  0.23890000  1.0 0.0920835694
H  H34  1  0.27060000  0.14050000  0.76110000  1.0 0.0920835694
H  H35  1  0.72940000  0.35950000  0.26110000  1.0 0.0920835694
H  H36  1  0.72940000  0.64050000  0.73890000  1.0 0.0920835694
H  H37  1  0.28250000  0.91220000  0.09010000  1.0 0.0994294993
H  H38  1  0.28250000  0.08780000  0.90990000  1.0 0.0994294993
H  H39  1  0.71750000  0.41220000  0.40990000  1.0 0.0994294993
H  H40  1  0.71750000  0.58780000  0.59010000  1.0 0.0994294993
H  H41  1  0.71750000  0.58780000  0.40990000  1.0 0.0994294993
H  H42  1  0.71750000  0.41220000  0.59010000  1.0 0.0994294993
H  H43  1  0.28250000  0.08780000  0.09010000  1.0 0.0994294993
H  H44  1  0.28250000  0.91220000  0.90990000  1.0 0.0994294993
H  H45  1  0.84010000  0.76140000  0.22090000  1.0 0.0994294993
H  H46  1  0.84010000  0.23860000  0.77910000  1.0 0.0994294993
H  H47  1  0.15990000  0.26140000  0.27910000  1.0 0.0994294993
H  H48  1  0.15990000  0.73860000  0.72090000  1.0 0.0994294993
H  H49  1  0.15990000  0.73860000  0.27910000  1.0 0.0994294993
H  H50  1  0.15990000  0.26140000  0.72090000  1.0 0.0994294993
H  H51  1  0.84010000  0.23860000  0.22090000  1.0 0.0994294993
H  H52  1  0.84010000  0.76140000  0.77910000  1.0 0.0994294993
H  H53  1  0.47180000  0.63310000  0.20090000  1.0 0.0994294993
H  H54  1  0.47180000  0.36690000  0.79910000  1.0 0.0994294993
H  H55  1  0.52820000  0.13310000  0.29910000  1.0 0.0994294993
H  H56  1  0.52820000  0.86690000  0.70090000  1.0 0.0994294993
H  H57  1  0.52820000  0.86690000  0.29910000  1.0 0.0994294993
H  H58  1  0.52820000  0.13310000  0.70090000  1.0 0.0994294993
H  H59  1  0.47180000  0.36690000  0.20090000  1.0 0.0994294993
H  H60  1  0.47180000  0.63310000  0.79910000  1.0 0.0994294993
H  H61  1  0.26310000  0.95770000  0.16190000  1.0 0.0720939841
H  H62  1  0.26310000  0.04230000  0.83810000  1.0 0.0720939841
H  H63  1  0.73690000  0.45770000  0.33810000  1.0 0.0720939841
H  H64  1  0.73690000  0.54230000  0.66190000  1.0 0.0720939841
H  H65  1  0.73690000  0.54230000  0.33810000  1.0 0.0720939841
H  H66  1  0.73690000  0.45770000  0.66190000  1.0 0.0720939841
H  H67  1  0.26310000  0.04230000  0.16190000  1.0 0.0720939841
H  H68  1  0.26310000  0.95770000  0.83810000  1.0 0.0720939841
H  H69  1  0.90130000  0.84110000  0.24480000  1.0 0.0720939841
H  H70  1  0.90130000  0.15890000  0.75520000  1.0 0.0720939841
H  H71  1  0.09870000  0.34110000  0.25520000  1.0 0.0720939841
H  H72  1  0.09870000  0.65890000  0.74480000  1.0 0.0720939841
H  H73  1  0.09870000  0.65890000  0.25520000  1.0 0.0720939841
H  H74  1  0.09870000  0.34110000  0.74480000  1.0 0.0720939841
H  H75  1  0.90130000  0.15890000  0.24480000  1.0 0.0720939841
H  H76  1  0.90130000  0.84110000  0.75520000  1.0 0.0720939841
H  H77  1  0.25450000  0.60830000  0.21630000  1.0 0.0720939841
H  H78  1  0.25450000  0.39170000  0.78370000  1.0 0.0720939841
H  H79  1  0.74550000  0.10830000  0.28370000  1.0 0.0720939841
H  H80  1  0.74550000  0.89170000  0.71630000  1.0 0.0720939841
H  H81  1  0.74550000  0.89170000  0.28370000  1.0 0.0720939841
H  H82  1  0.74550000  0.10830000  0.71630000  1.0 0.0720939841
H  H83  1  0.25450000  0.39170000  0.21630000  1.0 0.0720939841
H  H84  1  0.25450000  0.60830000  0.78370000  1.0 0.0720939841
C  C1  1  0.09470000  0.77330000  0.00000000  1.0 0.5774090283
C  C2  1  0.09470000  0.22670000  0.00000000  1.0 0.5774090283
C  C3  1  0.90530000  0.27330000  0.50000000  1.0 0.5774090283
C  C4  1  0.90530000  0.72670000  0.50000000  1.0 0.5774090283
C  C5  1  0.87600000  0.67830000  0.08120000  1.0 0.6105548733
C  C6  1  0.87600000  0.32170000  0.91880000  1.0 0.6105548733
C  C7  1  0.12400000  0.17830000  0.41880000  1.0 0.6105548733
C  C8  1  0.12400000  0.82170000  0.58120000  1.0 0.6105548733
C  C9  1  0.12400000  0.82170000  0.41880000  1.0 0.6105548733
C  C10  1  0.12400000  0.17830000  0.58120000  1.0 0.6105548733
C  C11  1  0.87600000  0.32170000  0.08120000  1.0 0.6105548733
C  C12  1  0.87600000  0.67830000  0.91880000  1.0 0.6105548733
C  C13  1  0.20880000  0.80830000  0.00000000  1.0 -0.0566220439
C  C14  1  0.20880000  0.19170000  0.00000000  1.0 -0.0566220439
C  C15  1  0.79120000  0.30830000  0.50000000  1.0 -0.0566220439
C  C16  1  0.79120000  0.69170000  0.50000000  1.0 -0.0566220439
C  C17  1  0.83540000  0.66540000  0.13310000  1.0 -0.0168332978
C  C18  1  0.83540000  0.33460000  0.86690000  1.0 -0.0168332978
C  C19  1  0.16460000  0.16540000  0.36690000  1.0 -0.0168332978
C  C20  1  0.16460000  0.83460000  0.63310000  1.0 -0.0168332978
C  C21  1  0.16460000  0.83460000  0.36690000  1.0 -0.0168332978
C  C22  1  0.16460000  0.16540000  0.63310000  1.0 -0.0168332978
C  C23  1  0.83540000  0.33460000  0.13310000  1.0 -0.0168332978
C  C24  1  0.83540000  0.66540000  0.86690000  1.0 -0.0168332978
C  C25  1  0.34620000  0.79080000  0.00000000  1.0 -0.1225697065
C  C26  1  0.34620000  0.20920000  0.00000000  1.0 -0.1225697065
C  C27  1  0.65380000  0.29080000  0.50000000  1.0 -0.1225697065
C  C28  1  0.65380000  0.70920000  0.50000000  1.0 -0.1225697065
C  C29  1  0.19050000  0.85990000  0.00000000  1.0 -0.1387894917
C  C30  1  0.19050000  0.14010000  0.00000000  1.0 -0.1387894917
C  C31  1  0.80950000  0.35990000  0.50000000  1.0 -0.1387894917
C  C32  1  0.80950000  0.64010000  0.50000000  1.0 -0.1387894917
C  C33  1  0.89850000  0.62720000  0.15850000  1.0 -0.1702550955
C  C34  1  0.89850000  0.37280000  0.84150000  1.0 -0.1702550955
C  C35  1  0.10150000  0.12720000  0.34150000  1.0 -0.1702550955
C  C36  1  0.10150000  0.87280000  0.65850000  1.0 -0.1702550955
C  C37  1  0.10150000  0.87280000  0.34150000  1.0 -0.1702550955
C  C38  1  0.10150000  0.12720000  0.65850000  1.0 -0.1702550955
C  C39  1  0.89850000  0.37280000  0.15850000  1.0 -0.1702550955
C  C40  1  0.89850000  0.62720000  0.84150000  1.0 -0.1702550955
C  C41  1  0.73700000  0.69400000  0.15550000  1.0 -0.1471807368
C  C42  1  0.73700000  0.30600000  0.84450000  1.0 -0.1471807368
C  C43  1  0.26300000  0.19400000  0.34450000  1.0 -0.1471807368
C  C44  1  0.26300000  0.80600000  0.65550000  1.0 -0.1471807368
C  C45  1  0.26300000  0.80600000  0.34450000  1.0 -0.1471807368
C  C46  1  0.26300000  0.19400000  0.65550000  1.0 -0.1471807368
C  C47  1  0.73700000  0.30600000  0.15550000  1.0 -0.1471807368
C  C48  1  0.73700000  0.69400000  0.84450000  1.0 -0.1471807368
C  C49  1  0.45380000  0.82210000  0.00000000  1.0 -0.010188258
C  C50  1  0.45380000  0.17790000  0.00000000  1.0 -0.010188258
C  C51  1  0.54620000  0.32210000  0.50000000  1.0 -0.010188258
C  C52  1  0.54620000  0.67790000  0.50000000  1.0 -0.010188258
C  C53  1  0.29680000  0.89270000  0.00000000  1.0 0.0570637316
C  C54  1  0.29680000  0.10730000  0.00000000  1.0 0.0570637316
C  C55  1  0.70320000  0.39270000  0.50000000  1.0 0.0570637316
C  C56  1  0.70320000  0.60730000  0.50000000  1.0 0.0570637316
C  C57  1  0.86300000  0.61710000  0.20430000  1.0 0.0008013772
C  C58  1  0.86300000  0.38290000  0.79570000  1.0 0.0008013772
C  C59  1  0.13700000  0.11710000  0.29570000  1.0 0.0008013772
C  C60  1  0.13700000  0.88290000  0.70430000  1.0 -0.0004048801
C  C61  1  0.13700000  0.88290000  0.29570000  1.0 -0.0004048801
C  C62  1  0.13700000  0.11710000  0.70430000  1.0 0.0008013772
C  C63  1  0.86300000  0.38290000  0.20430000  1.0 0.0008013772
C  C64  1  0.86300000  0.61710000  0.79570000  1.0 0.0008013772
C  C65  1  0.69660000  0.68530000  0.20330000  1.0 0.0780188472
C  C66  1  0.69660000  0.31470000  0.79670000  1.0 0.0780188472
C  C67  1  0.30340000  0.18530000  0.29670000  1.0 0.0780188472
C  C68  1  0.30340000  0.81470000  0.70330000  1.0 0.0780188472
C  C69  1  0.30340000  0.81470000  0.29670000  1.0 0.0780188472
C  C70  1  0.30340000  0.18530000  0.70330000  1.0 0.0780188472
C  C71  1  0.69660000  0.31470000  0.20330000  1.0 0.0780188472
C  C72  1  0.69660000  0.68530000  0.79670000  1.0 0.0780188472
C  C73  1  0.43110000  0.87080000  0.00000000  1.0 -0.160943828
C  C74  1  0.43110000  0.12920000  0.00000000  1.0 -0.160943828
C  C75  1  0.56890000  0.37080000  0.50000000  1.0 -0.160943828
C  C76  1  0.56890000  0.62920000  0.50000000  1.0 -0.160943828
C  C77  1  0.59620000  0.80000000  0.00000000  1.0 0.5042077594
C  C78  1  0.59620000  0.20000000  0.00000000  1.0 0.5042077594
C  C79  1  0.40380000  0.30000000  0.50000000  1.0 0.5042077594
C  C80  1  0.40380000  0.70000000  0.50000000  1.0 0.5042077594
C  C81  1  0.28290000  0.94680000  0.00000000  1.0 -0.0472736356
C  C82  1  0.28290000  0.05320000  0.00000000  1.0 -0.0472736356
C  C83  1  0.71710000  0.44680000  0.50000000  1.0 -0.0472736356
C  C84  1  0.71710000  0.55320000  0.50000000  1.0 -0.0472736356
C  C85  1  0.75630000  0.64750000  0.22820000  1.0 -0.2629652775
C  C86  1  0.75630000  0.35250000  0.77180000  1.0 -0.2629652775
C  C87  1  0.24370000  0.14750000  0.27180000  1.0 -0.2629652775
C  C88  1  0.24370000  0.85250000  0.72820000  1.0 -0.2629652775
C  C89  1  0.24370000  0.85250000  0.27180000  1.0 -0.2629652775
C  C90  1  0.24370000  0.14750000  0.72820000  1.0 -0.2629652775
C  C91  1  0.75630000  0.35250000  0.22820000  1.0 -0.2652113296
C  C92  1  0.75630000  0.64750000  0.77180000  1.0 -0.2629652775
C  C93  1  0.93990000  0.57420000  0.22670000  1.0 0.2291468859
C  C94  1  0.93990000  0.42580000  0.77330000  1.0 0.2291468859
C  C95  1  0.06010000  0.07420000  0.27330000  1.0 0.2238805511
C  C96  1  0.06010000  0.92580000  0.72670000  1.0 0.2238805511
C  C97  1  0.06010000  0.92580000  0.27330000  1.0 0.2238805511
C  C98  1  0.06010000  0.07420000  0.72670000  1.0 0.2238805511
C  C99  1  0.93990000  0.42580000  0.22670000  1.0 0.2291468859
C  C100  1  0.93990000  0.57420000  0.77330000  1.0 0.2291468859
C  C101  1  0.59470000  0.71750000  0.22630000  1.0 -0.0472736356
C  C102  1  0.59470000  0.28250000  0.77370000  1.0 -0.0472736356
C  C103  1  0.40530000  0.21750000  0.27370000  1.0 -0.0472736356
C  C104  1  0.40530000  0.78250000  0.72630000  1.0 -0.0472736356
C  C105  1  0.40530000  0.78250000  0.27370000  1.0 -0.0472736356
C  C106  1  0.40530000  0.21750000  0.72630000  1.0 -0.0472736356
C  C107  1  0.59470000  0.28250000  0.22630000  1.0 -0.0472736356
C  C108  1  0.59470000  0.71750000  0.77370000  1.0 -0.0472736356
C  C109  1  0.28220000  0.97320000  0.04490000  1.0 0.0274464518
C  C110  1  0.28220000  0.02680000  0.95510000  1.0 0.0274464518
C  C111  1  0.71780000  0.47320000  0.45510000  1.0 0.0274464518
C  C112  1  0.71780000  0.52680000  0.54490000  1.0 0.0274464518
C  C113  1  0.71780000  0.52680000  0.45510000  1.0 0.0274464518
C  C114  1  0.71780000  0.47320000  0.54490000  1.0 0.0274464518
C  C115  1  0.28220000  0.02680000  0.04490000  1.0 0.0274464518
C  C116  1  0.28220000  0.97320000  0.95510000  1.0 0.0274464518
C  C117  1  0.63430000  0.76550000  0.24270000  1.0 0.0215930373
C  C118  1  0.63430000  0.23450000  0.75730000  1.0 0.0215930373
C  C119  1  0.36570000  0.26550000  0.25730000  1.0 0.0215930373
C  C120  1  0.36570000  0.73450000  0.74270000  1.0 0.0215930373
C  C121  1  0.36570000  0.73450000  0.25730000  1.0 0.0215930373
C  C122  1  0.36570000  0.26550000  0.74270000  1.0 0.0215930373
C  C123  1  0.63430000  0.23450000  0.24270000  1.0 0.0215930373
C  C124  1  0.63430000  0.76550000  0.75730000  1.0 0.0215930373
C  C125  1  0.46000000  0.70240000  0.23550000  1.0 0.0215930373
C  C126  1  0.46000000  0.29760000  0.76450000  1.0 0.0215930373
C  C127  1  0.54000000  0.20240000  0.26450000  1.0 0.0215930373
C  C128  1  0.54000000  0.79760000  0.73550000  1.0 0.0215930373
C  C129  1  0.54000000  0.79760000  0.26450000  1.0 0.0215930373
C  C130  1  0.54000000  0.20240000  0.73550000  1.0 0.0215930373
C  C131  1  0.46000000  0.29760000  0.23550000  1.0 0.0215930373
C  C132  1  0.46000000  0.70240000  0.76450000  1.0 0.0215930373
C  C133  1  0.27870000  0.94750000  0.08920000  1.0 -0.1387894917
C  C134  1  0.27870000  0.05250000  0.91080000  1.0 -0.1387894917
C  C135  1  0.72130000  0.44750000  0.41080000  1.0 -0.1387894917
C  C136  1  0.72130000  0.55250000  0.58920000  1.0 -0.1387894917
C  C137  1  0.72130000  0.55250000  0.41080000  1.0 -0.1387894917
C  C138  1  0.72130000  0.44750000  0.58920000  1.0 -0.1387894917
C  C139  1  0.27870000  0.05250000  0.08920000  1.0 -0.1387894917
C  C140  1  0.27870000  0.94750000  0.91080000  1.0 -0.1387894917
C  C141  1  0.77430000  0.78270000  0.23570000  1.0 -0.160943828
C  C142  1  0.77430000  0.21730000  0.76430000  1.0 -0.160943828
C  C143  1  0.22570000  0.28270000  0.26430000  1.0 -0.160943828
C  C144  1  0.22570000  0.71730000  0.73570000  1.0 -0.160943828
C  C145  1  0.22570000  0.71730000  0.26430000  1.0 -0.160943828
C  C146  1  0.22570000  0.28270000  0.73570000  1.0 -0.160943828
C  C147  1  0.77430000  0.21730000  0.23570000  1.0 -0.160943828
C  C148  1  0.77430000  0.78270000  0.76430000  1.0 -0.160943828
C  C149  1  0.41160000  0.65460000  0.21830000  1.0 -0.1387894917
C  C150  1  0.41160000  0.34540000  0.78170000  1.0 -0.1387894917
C  C151  1  0.58840000  0.15460000  0.28170000  1.0 -0.1387894917
C  C152  1  0.58840000  0.84540000  0.71830000  1.0 -0.1387894917
C  C153  1  0.58840000  0.84540000  0.28170000  1.0 -0.1387894917
C  C154  1  0.58840000  0.15460000  0.71830000  1.0 -0.1387894917
C  C155  1  0.41160000  0.34540000  0.21830000  1.0 -0.1387894917
C  C156  1  0.41160000  0.65460000  0.78170000  1.0 -0.1387894917
C  C157  1  0.27000000  0.97470000  0.13130000  1.0 -0.1387894917
C  C158  1  0.27000000  0.02530000  0.86870000  1.0 -0.1283035765
C  C159  1  0.73000000  0.47470000  0.36870000  1.0 -0.1387894917
C  C160  1  0.73000000  0.52530000  0.63130000  1.0 -0.1387894917
C  C161  1  0.73000000  0.52530000  0.36870000  1.0 -0.1387894917
C  C162  1  0.73000000  0.47470000  0.63130000  1.0 -0.1387894917
C  C163  1  0.27000000  0.02530000  0.13130000  1.0 -0.1283035765
C  C164  1  0.27000000  0.97470000  0.86870000  1.0 -0.1387894917
C  C165  1  0.81090000  0.82940000  0.25040000  1.0 -0.1225697065
C  C166  1  0.81090000  0.17060000  0.74960000  1.0 -0.1225697065
C  C167  1  0.18910000  0.32940000  0.24960000  1.0 -0.1225697065
C  C168  1  0.18910000  0.67060000  0.75040000  1.0 -0.1225697065
C  C169  1  0.18910000  0.67060000  0.24960000  1.0 -0.1225697065
C  C170  1  0.18910000  0.32940000  0.75040000  1.0 -0.1225697065
C  C171  1  0.81090000  0.17060000  0.25040000  1.0 -0.1225697065
C  C172  1  0.81090000  0.82940000  0.74960000  1.0 -0.1225697065
C  C173  1  0.28260000  0.64060000  0.22670000  1.0 -0.1075038768
C  C174  1  0.28260000  0.35940000  0.77330000  1.0 -0.1075038768
C  C175  1  0.71740000  0.14060000  0.27330000  1.0 -0.1075038768
C  C176  1  0.71740000  0.85940000  0.72670000  1.0 -0.1075038768
C  C177  1  0.71740000  0.85940000  0.27330000  1.0 -0.1075038768
C  C178  1  0.71740000  0.14060000  0.72670000  1.0 -0.1075038768
C  C179  1  0.28260000  0.35940000  0.22670000  1.0 -0.1075038768
C  C180  1  0.28260000  0.64060000  0.77330000  1.0 -0.1075038768
C  C181  1  0.89800000  0.58530000  0.24800000  1.0 0.2291468859
C  C182  1  0.89800000  0.41470000  0.75200000  1.0 0.2291468859
C  C183  1  0.10200000  0.08530000  0.25200000  1.0 0.2291468859
C  C184  1  0.10200000  0.91470000  0.74800000  1.0 0.2291468859
C  C185  1  0.10200000  0.91470000  0.25200000  1.0 0.2291468859
C  C186  1  0.10200000  0.08530000  0.74800000  1.0 0.2291468859
C  C187  1  0.89800000  0.41470000  0.24800000  1.0 0.2291468859
C  C188  1  0.89800000  0.58530000  0.75200000  1.0 0.2291468859
O  O1  1  0.11770000  0.72860000  0.00000000  1.0 -0.5817549087
O  O2  1  0.11770000  0.27140000  0.00000000  1.0 -0.5817549087
O  O3  1  0.88230000  0.22860000  0.50000000  1.0 -0.5817549087
O  O4  1  0.88230000  0.77140000  0.50000000  1.0 -0.5817549087
O  O5  1  0.96990000  0.65100000  0.06090000  1.0 -0.6147169478
O  O6  1  0.96990000  0.34900000  0.93910000  1.0 -0.6150984771
O  O7  1  0.03010000  0.15100000  0.43910000  1.0 -0.6150984771
O  O8  1  0.03010000  0.84900000  0.56090000  1.0 -0.6147169478
O  O9  1  0.03010000  0.84900000  0.43910000  1.0 -0.6147169478
O  O10  1  0.03010000  0.15100000  0.56090000  1.0 -0.6150984771
O  O11  1  0.96990000  0.34900000  0.06090000  1.0 -0.6150984771
O  O12  1  0.96990000  0.65100000  0.93910000  1.0 -0.6150984771
O  O13  1  0.97720000  0.79220000  0.00000000  1.0 -0.5370480276
O  O14  1  0.97720000  0.20780000  0.00000000  1.0 -0.5370480276
O  O15  1  0.02280000  0.29220000  0.50000000  1.0 -0.5370480276
O  O16  1  0.02280000  0.70780000  0.50000000  1.0 -0.5370480276
O  O17  1  0.81580000  0.71140000  0.06057000  1.0 -0.5170851655
O  O18  1  0.81580000  0.28860000  0.93943000  1.0 -0.5170851655
O  O19  1  0.18420000  0.21140000  0.43943000  1.0 -0.5170851655
O  O20  1  0.18420000  0.78860000  0.56057000  1.0 -0.5170851655
O  O21  1  0.18420000  0.78860000  0.43943000  1.0 -0.5170851655
O  O22  1  0.18420000  0.21140000  0.56057000  1.0 -0.5170851655
O  O23  1  0.81580000  0.28860000  0.06057000  1.0 -0.5170851655
O  O24  1  0.81580000  0.71140000  0.93943000  1.0 -0.5170851655
O  O25  1  0.61100000  0.75600000  0.00000000  1.0 -0.4220592386
O  O26  1  0.61100000  0.24400000  0.00000000  1.0 -0.4220592386
O  O27  1  0.38900000  0.25600000  0.50000000  1.0 -0.4220592386
O  O28  1  0.38900000  0.74400000  0.50000000  1.0 -0.4220592386
O  O29  1  0.69020000  0.82470000  0.00000000  1.0 -0.4132553644
O  O30  1  0.69020000  0.17530000  0.00000000  1.0 -0.4132553644
O  O31  1  0.30980000  0.32470000  0.50000000  1.0 -0.4132553644
O  O32  1  0.30980000  0.67530000  0.50000000  1.0 -0.4132553644
O  O33  1  0.90710000  0.55640000  0.26420000  1.0 0.0430378379
O  O34  1  0.90710000  0.44360000  0.73580000  1.0 0.045803658
O  O35  1  0.09290000  0.05640000  0.23580000  1.0 0.0430378379
O  O36  1  0.09290000  0.94360000  0.76420000  1.0 0.0430378379
O  O37  1  0.09290000  0.94360000  0.23580000  1.0 0.0430378379
O  O38  1  0.09290000  0.05640000  0.76420000  1.0 0.0430378379
O  O39  1  0.90710000  0.44360000  0.26420000  1.0 0.045803658
O  O40  1  0.90710000  0.55640000  0.73580000  1.0 0.0430378379
O  O41  1  0.03700000  0.55530000  0.20970000  1.0 -0.1283035765
O  O42  1  0.03700000  0.44470000  0.79030000  1.0 -0.1225697065
O  O43  1  0.96300000  0.05530000  0.29030000  1.0 -0.1283035765
O  O44  1  0.96300000  0.94470000  0.70970000  1.0 -0.1283035765
O  O45  1  0.96300000  0.94470000  0.29030000  1.0 -0.1283035765
O  O46  1  0.96300000  0.05530000  0.70970000  1.0 -0.1283035765
O  O47  1  0.03700000  0.44470000  0.20970000  1.0 -0.1225697065
O  O48  1  0.03700000  0.55530000  0.79030000  1.0 -0.1283035765
O  O49  1  0.86210000  0.58200000  0.28890000  1.0 -0.1283035765
O  O50  1  0.86210000  0.41800000  0.71110000  1.0 -0.1283035765
O  O51  1  0.13790000  0.08200000  0.21110000  1.0 -0.1283035765
O  O52  1  0.13790000  0.91800000  0.78890000  1.0 -0.1283035765
O  O53  1  0.13790000  0.91800000  0.21110000  1.0 -0.1283035765
O  O54  1  0.13790000  0.08200000  0.78890000  1.0 -0.1283035765
O  O55  1  0.86210000  0.41800000  0.28890000  1.0 -0.1283035765
O  O56  1  0.86210000  0.58200000  0.71110000  1.0 -0.1283035765
O  O57  1  0.97930000  0.55780000  0.23140000  1.0 -0.0168332978
O  O58  1  0.97930000  0.44220000  0.76860000  1.0 -0.0168332978
O  O59  1  0.02070000  0.05780000  0.26860000  1.0 -0.0168332978
O  O60  1  0.02070000  0.94220000  0.73140000  1.0 -0.0168332978
O  O61  1  0.02070000  0.94220000  0.26860000  1.0 -0.0168332978
O  O62  1  0.02070000  0.05780000  0.73140000  1.0 -0.0168332978
O  O63  1  0.97930000  0.44220000  0.23140000  1.0 -0.0168332978
O  O64  1  0.97930000  0.55780000  0.76860000  1.0 -0.0168332978
