# DDEC6 charges by PACMAN v1.1 (https://github.com/mtap-research/PACMAN-charge/)
data_YOGVEX_ion_pacman
_symmetry_space_group_name_H-M   'P 1'
_cell_length_a   8.13000000
_cell_length_b   20.17400000
_cell_length_c   11.98790000
_cell_angle_alpha   90.00000000
_cell_angle_beta   131.26300000
_cell_angle_gamma   90.00000000
_symmetry_Int_Tables_number   1
_chemical_formula_structural   ZnH12C12N24(ClO4)2
_chemical_formula_sum   'Zn2 H24 C24 N48 Cl4 O16'
_cell_volume   1477.96637817
_cell_formula_units_Z   2
loop_
 _symmetry_equiv_pos_site_id
 _symmetry_equiv_pos_as_xyz
  1  'x, y, z'
loop_
 _atom_site_type_symbol
 _atom_site_label
 _atom_site_symmetry_multiplicity
 _atom_site_fract_x
 _atom_site_fract_y
 _atom_site_fract_z
 _atom_site_occupancy
 _atom_site_charge
Zn  Zn1  1  0.00000000  0.50000000  0.50000000  1.0 0.5764655093
Zn  Zn2  1  0.00000000  0.00000000  0.00000000  1.0 0.5764655093
H  H1  1  0.80160000  0.63120000  0.28490000  1.0 0.1308777341
H  H2  1  0.19840000  0.13120000  0.21510000  1.0 0.1308777341
H  H3  1  0.19840000  0.36880000  0.71510000  1.0 0.1308777341
H  H4  1  0.80160000  0.86880000  0.78490000  1.0 0.1308777341
H  H5  1  0.38140000  0.65300000  0.34910000  1.0 0.1222591171
H  H6  1  0.61860000  0.15300000  0.15090000  1.0 0.1222591171
H  H7  1  0.61860000  0.34700000  0.65090000  1.0 0.1222591171
H  H8  1  0.38140000  0.84700000  0.84910000  1.0 0.1222591171
H  H9  1  0.13460000  0.85700000  0.17010000  1.0 0.1396107854
H  H10  1  0.86540000  0.35700000  0.32990000  1.0 0.1396107854
H  H11  1  0.86540000  0.14300000  0.82990000  1.0 0.1396107854
H  H12  1  0.13460000  0.64300000  0.67010000  1.0 0.1396107854
H  H13  1  0.58510000  0.83580000  0.13370000  1.0 0.1308777341
H  H14  1  0.41490000  0.33580000  0.36630000  1.0 0.1308777341
H  H15  1  0.41490000  0.16420000  0.86630000  1.0 0.1308777341
H  H16  1  0.58510000  0.66420000  0.63370000  1.0 0.1308777341
H  H17  1  0.25470000  0.49860000  0.35480000  1.0 0.1308777341
H  H18  1  0.74530000  0.99860000  0.14520000  1.0 0.1308777341
H  H19  1  0.74530000  0.50140000  0.64520000  1.0 0.1308777341
H  H20  1  0.25470000  0.00140000  0.85480000  1.0 0.1308777341
H  H21  1  0.64160000  0.49580000  0.96250000  1.0 0.1308777341
H  H22  1  0.35840000  0.99580000  0.53750000  1.0 0.1308777341
H  H23  1  0.35840000  0.50420000  0.03750000  1.0 0.1308777341
H  H24  1  0.64160000  0.00420000  0.46250000  1.0 0.1308777341
C  C1  1  0.72010000  0.62378000  0.31480000  1.0 0.0917398005
C  C2  1  0.27990000  0.12378000  0.18520000  1.0 0.0917398005
C  C3  1  0.27990000  0.37622000  0.68520000  1.0 0.0917398005
C  C4  1  0.72010000  0.87622000  0.81480000  1.0 0.0917398005
C  C5  1  0.49040000  0.63518000  0.35000000  1.0 0.0728870401
C  C6  1  0.50960000  0.13518000  0.15000000  1.0 0.0728870401
C  C7  1  0.50960000  0.36482000  0.65000000  1.0 0.0728870401
C  C8  1  0.49040000  0.86482000  0.85000000  1.0 0.0728870401
C  C9  1  0.22580000  0.86501000  0.14810000  1.0 0.0917398005
C  C10  1  0.77420000  0.36501000  0.35190000  1.0 0.0917398005
C  C11  1  0.77420000  0.13499000  0.85190000  1.0 0.0917398005
C  C12  1  0.22580000  0.63499000  0.64810000  1.0 0.0917398005
C  C13  1  0.47220000  0.85379000  0.12840000  1.0 0.0603977361
C  C14  1  0.52780000  0.35379000  0.37160000  1.0 0.0603977361
C  C15  1  0.52780000  0.14621000  0.87160000  1.0 0.0603977361
C  C16  1  0.47220000  0.64621000  0.62840000  1.0 0.0603977361
C  C17  1  0.09940000  0.49777000  0.28100000  1.0 0.0917398005
C  C18  1  0.90060000  0.99777000  0.21900000  1.0 0.0917398005
C  C19  1  0.90060000  0.50223000  0.71900000  1.0 0.0917398005
C  C20  1  0.09940000  0.00223000  0.78100000  1.0 0.0917398005
C  C21  1  0.76310000  0.49612000  0.06640000  1.0 0.0728870401
C  C22  1  0.23690000  0.99612000  0.43360000  1.0 0.0728870401
C  C23  1  0.23690000  0.50388000  0.93360000  1.0 0.0728870401
C  C24  1  0.76310000  0.00388000  0.56640000  1.0 0.0728870401
N  N1  1  0.74111000  0.57290000  0.38961000  1.0 -0.156665322
N  N2  1  0.25889000  0.07290000  0.11039000  1.0 -0.156665322
N  N3  1  0.25889000  0.42710000  0.61039000  1.0 -0.156665322
N  N4  1  0.74111000  0.92710000  0.88961000  1.0 -0.156665322
N  N5  1  0.59290000  0.57947000  0.41170000  1.0 -0.2103520563
N  N6  1  0.40710000  0.07947000  0.08830000  1.0 -0.2103520563
N  N7  1  0.40710000  0.42053000  0.58830000  1.0 -0.2103520563
N  N8  1  0.59290000  0.92053000  0.91170000  1.0 -0.2103520563
N  N9  1  0.56370000  0.66451000  0.28600000  1.0 0.1308777341
N  N10  1  0.43630000  0.16451000  0.21400000  1.0 0.1308777341
N  N11  1  0.43630000  0.33549000  0.71400000  1.0 0.1308777341
N  N12  1  0.56370000  0.83549000  0.78600000  1.0 0.1308777341
N  N13  1  0.52730000  0.72663000  0.22380000  1.0 -0.0210659063
N  N14  1  0.47270000  0.22663000  0.27620000  1.0 -0.0210659063
N  N15  1  0.47270000  0.27337000  0.77620000  1.0 -0.0210659063
N  N16  1  0.52730000  0.77337000  0.72380000  1.0 -0.0210659063
N  N17  1  0.40340000  0.75897000  0.22980000  1.0 -0.0063663483
N  N18  1  0.59660000  0.25897000  0.27020000  1.0 -0.0063663483
N  N19  1  0.59660000  0.24103000  0.77020000  1.0 -0.0048934496
N  N20  1  0.40340000  0.74103000  0.72980000  1.0 -0.0063663483
N  N21  1  0.37270000  0.82169000  0.17110000  1.0 0.1222591171
N  N22  1  0.62730000  0.32169000  0.32890000  1.0 0.1222591171
N  N23  1  0.62730000  0.17831000  0.82890000  1.0 0.1222591171
N  N24  1  0.37270000  0.67831000  0.67110000  1.0 0.1222591171
N  N25  1  0.22939000  0.91925000  0.09129000  1.0 -0.1467465503
N  N26  1  0.77061000  0.41925000  0.40871000  1.0 -0.1467465503
N  N27  1  0.77061000  0.08075000  0.90871000  1.0 -0.1467465503
N  N28  1  0.22939000  0.58075000  0.59129000  1.0 -0.1467465503
N  N29  1  0.38800000  0.91289000  0.07940000  1.0 -0.1918433985
N  N30  1  0.61200000  0.41289000  0.42060000  1.0 -0.1918433985
N  N31  1  0.61200000  0.08711000  0.92060000  1.0 -0.1918433985
N  N32  1  0.38800000  0.58711000  0.57940000  1.0 -0.1918433985
N  N33  1  0.96544000  0.49666000  0.30584000  1.0 -0.156665322
N  N34  1  0.03456000  0.99666000  0.19416000  1.0 -0.156665322
N  N35  1  0.03456000  0.50334000  0.69416000  1.0 -0.156665322
N  N36  1  0.96544000  0.00334000  0.80584000  1.0 -0.156665322
N  N37  1  0.75115000  0.49526000  0.16935000  1.0 -0.1918433985
N  N38  1  0.24885000  0.99526000  0.33065000  1.0 -0.1918433985
N  N39  1  0.24885000  0.50474000  0.83065000  1.0 -0.1918433985
N  N40  1  0.75115000  0.00474000  0.66935000  1.0 -0.1918433985
N  N41  1  0.97923000  0.49757000  0.13173000  1.0 0.106029793
N  N42  1  0.02077000  0.99757000  0.36827000  1.0 0.106029793
N  N43  1  0.02077000  0.50243000  0.86827000  1.0 0.106029793
N  N44  1  0.97923000  0.00243000  0.63173000  1.0 0.106029793
N  N45  1  0.07272000  0.49955000  0.06882000  1.0 -0.0063663483
N  N46  1  0.92728000  0.99955000  0.43118000  1.0 -0.0063663483
N  N47  1  0.92728000  0.50045000  0.93118000  1.0 -0.0063663483
N  N48  1  0.07272000  0.00045000  0.56882000  1.0 -0.0063663483
Cl  Cl1  1  0.89756000  0.68469000  0.08949000  1.0 1.2757229725
Cl  Cl2  1  0.10244000  0.18469000  0.41051000  1.0 1.2757229725
Cl  Cl3  1  0.10244000  0.31531000  0.91051000  1.0 1.2757229725
Cl  Cl4  1  0.89756000  0.81531000  0.58949000  1.0 1.2757229725
O  O1  1  0.02300000  0.68077000  0.24670000  1.0 -0.5195236882
O  O2  1  0.87500000  0.75210000  0.04530000  1.0 -0.5143468162
O  O3  1  0.02080000  0.64923000  0.05870000  1.0 -0.5489538094
O  O4  1  0.68810000  0.65511000  0.01360000  1.0 -0.5195236882
O  O5  1  0.97700000  0.18077000  0.25330000  1.0 -0.5195236882
O  O6  1  0.12500000  0.25210000  0.45470000  1.0 -0.5143468162
O  O7  1  0.97920000  0.14923000  0.44130000  1.0 -0.5489538094
O  O8  1  0.31190000  0.15511000  0.48640000  1.0 -0.5195236882
O  O9  1  0.97700000  0.31923000  0.75330000  1.0 -0.5195236882
O  O10  1  0.12500000  0.24790000  0.95470000  1.0 -0.5143468162
O  O11  1  0.97920000  0.35077000  0.94130000  1.0 -0.5489538094
O  O12  1  0.31190000  0.34489000  0.98640000  1.0 -0.5195236882
O  O13  1  0.02300000  0.81923000  0.74670000  1.0 -0.5195236882
O  O14  1  0.87500000  0.74790000  0.54530000  1.0 -0.5143468162
O  O15  1  0.02080000  0.85077000  0.55870000  1.0 -0.5489538094
O  O16  1  0.68810000  0.84489000  0.51360000  1.0 -0.5195236882
