# DDEC6 charges by PACMAN v1.1 (https://github.com/mtap-research/PACMAN-charge/)
data_YOMVIG01_FSR_pacman
_symmetry_space_group_name_H-M   'P 1'
_cell_length_a   9.84014000
_cell_length_b   9.84014000
_cell_length_c   15.26100000
_cell_angle_alpha   74.43400000
_cell_angle_beta   105.56600000
_cell_angle_gamma   96.73970000
_symmetry_Int_Tables_number   1
_chemical_formula_structural   AlPO4
_chemical_formula_sum   'Al12 P12 O48'
_cell_volume   1369.64910681
_cell_formula_units_Z   12
loop_
 _symmetry_equiv_pos_site_id
 _symmetry_equiv_pos_as_xyz
  1  'x, y, z'
loop_
 _atom_site_type_symbol
 _atom_site_label
 _atom_site_symmetry_multiplicity
 _atom_site_fract_x
 _atom_site_fract_y
 _atom_site_fract_z
 _atom_site_occupancy
 _atom_site_charge
Al  Al1  1  0.12069000  0.62121000  0.41802000  1.0 1.7851990759
Al  Al2  1  0.62121000  0.12069000  0.08198000  1.0 1.7839507759
Al  Al3  1  0.87931000  0.37879000  0.58198000  1.0 1.7839507759
Al  Al4  1  0.37879000  0.87931000  0.91802000  1.0 1.7851990759
Al  Al5  1  0.52116000  0.68830000  0.33673000  1.0 1.7710694671
Al  Al6  1  0.68830000  0.52116000  0.16327000  1.0 1.7710694671
Al  Al7  1  0.47884000  0.31170000  0.66327000  1.0 1.7710694671
Al  Al8  1  0.31170000  0.47884000  0.83673000  1.0 1.7710694671
Al  Al9  1  0.43368000  0.18492000  0.37680000  1.0 1.764011383
Al  Al10  1  0.18492000  0.43368000  0.12320000  1.0 1.764011383
Al  Al11  1  0.56632000  0.81508000  0.62320000  1.0 1.764011383
Al  Al12  1  0.81508000  0.56632000  0.87680000  1.0 1.764011383
P  P1  1  0.27340000  0.45744000  0.32942000  1.0 1.5211215615
P  P2  1  0.45744000  0.27340000  0.17058000  1.0 1.5211215615
P  P3  1  0.72660000  0.54256000  0.67058000  1.0 1.5211215615
P  P4  1  0.54256000  0.72660000  0.82942000  1.0 1.5211215615
P  P5  1  0.36586000  0.85752000  0.42102000  1.0 1.5115438998
P  P6  1  0.85752000  0.36586000  0.07898000  1.0 1.5115438998
P  P7  1  0.63414000  0.14248000  0.57898000  1.0 1.5115438998
P  P8  1  0.14248000  0.63414000  0.92102000  1.0 1.5115438998
P  P9  1  0.19214000  0.43770000  0.62806000  1.0 1.5307574868
P  P10  1  0.43770000  0.19214000  0.87194000  1.0 1.5307574868
P  P11  1  0.80786000  0.56230000  0.37194000  1.0 1.5307574868
P  P12  1  0.56230000  0.80786000  0.12806000  1.0 1.5307574868
O  O1  1  0.40970000  0.53710000  0.36430000  1.0 -0.8481054008
O  O2  1  0.53710000  0.40970000  0.13570000  1.0 -0.8481054008
O  O3  1  0.59030000  0.46290000  0.63570000  1.0 -0.8481054008
O  O4  1  0.46290000  0.59030000  0.86430000  1.0 -0.8481054008
O  O5  1  0.22610000  0.78510000  0.38730000  1.0 -0.8023048937
O  O6  1  0.78510000  0.22610000  0.11270000  1.0 -0.8023048937
O  O7  1  0.77390000  0.21490000  0.61270000  1.0 -0.8023048937
O  O8  1  0.21490000  0.77390000  0.88730000  1.0 -0.8023048937
O  O9  1  0.47880000  0.82460000  0.37910000  1.0 -0.8300316036
O  O10  1  0.82460000  0.47880000  0.12090000  1.0 -0.8300316036
O  O11  1  0.52120000  0.17540000  0.62090000  1.0 -0.8300316036
O  O12  1  0.17540000  0.52120000  0.87910000  1.0 -0.8300316036
O  O13  1  0.15920000  0.48220000  0.37070000  1.0 -0.8181318343
O  O14  1  0.48220000  0.15920000  0.12930000  1.0 -0.8181318343
O  O15  1  0.84080000  0.51780000  0.62930000  1.0 -0.8181318343
O  O16  1  0.51780000  0.84080000  0.87070000  1.0 -0.8181318343
O  O17  1  0.29630000  0.29890000  0.35940000  1.0 -0.8181318343
O  O18  1  0.29890000  0.29630000  0.14060000  1.0 -0.8181318343
O  O19  1  0.70370000  0.70110000  0.64060000  1.0 -0.8181318343
O  O20  1  0.70110000  0.70370000  0.85940000  1.0 -0.8181318343
O  O21  1  0.14800000  0.56500000  0.54580000  1.0 -0.8300316036
O  O22  1  0.56500000  0.14800000  0.95420000  1.0 -0.8300316036
O  O23  1  0.85200000  0.43500000  0.45420000  1.0 -0.8300316036
O  O24  1  0.43500000  0.85200000  0.04580000  1.0 -0.8300316036
O  O25  1  0.25210000  0.49450000  0.71440000  1.0 -0.8300316036
O  O26  1  0.49450000  0.25210000  0.78560000  1.0 -0.8300316036
O  O27  1  0.74790000  0.50550000  0.28560000  1.0 -0.8300316036
O  O28  1  0.50550000  0.74790000  0.21440000  1.0 -0.8300316036
O  O29  1  0.34520000  0.01540000  0.39110000  1.0 -0.8140574545
O  O30  1  0.01540000  0.34520000  0.10890000  1.0 -0.8140574545
O  O31  1  0.65480000  0.98460000  0.60890000  1.0 -0.8140574545
O  O32  1  0.98460000  0.65480000  0.89110000  1.0 -0.8140574545
O  O33  1  0.41440000  0.81000000  0.52740000  1.0 -0.8300316036
O  O34  1  0.81000000  0.41440000  0.97260000  1.0 -0.8300316036
O  O35  1  0.58560000  0.19000000  0.47260000  1.0 -0.8300316036
O  O36  1  0.19000000  0.58560000  0.02740000  1.0 -0.8300316036
O  O37  1  0.06440000  0.33620000  0.63760000  1.0 -0.8140574545
O  O38  1  0.33620000  0.06440000  0.86240000  1.0 -0.8140574545
O  O39  1  0.93560000  0.66380000  0.36240000  1.0 -0.8140574545
O  O40  1  0.66380000  0.93560000  0.13760000  1.0 -0.8140574545
O  O41  1  0.22830000  0.50850000  0.22300000  1.0 -0.8300316036
O  O42  1  0.50850000  0.22830000  0.27700000  1.0 -0.8300316036
O  O43  1  0.77170000  0.49150000  0.77700000  1.0 -0.8300316036
O  O44  1  0.49150000  0.77170000  0.72300000  1.0 -0.8300316036
O  O45  1  0.30190000  0.35710000  0.61190000  1.0 -0.8181318343
O  O46  1  0.35710000  0.30190000  0.88810000  1.0 -0.8181318343
O  O47  1  0.69810000  0.64290000  0.38810000  1.0 -0.8181318343
O  O48  1  0.64290000  0.69810000  0.11190000  1.0 -0.8181318343
