# DDEC6 charges by PACMAN v1.1 (https://github.com/mtap-research/PACMAN-charge/)
data_YOMVIG_FSR_pacman
_symmetry_space_group_name_H-M   'P 1'
_cell_length_a   9.83948000
_cell_length_b   9.83948000
_cell_length_c   15.22900000
_cell_angle_alpha   74.51120000
_cell_angle_beta   105.48900000
_cell_angle_gamma   96.81850000
_symmetry_Int_Tables_number   1
_chemical_formula_structural   AlPO4
_chemical_formula_sum   'Al12 P12 O48'
_cell_volume   1367.46666263
_cell_formula_units_Z   12
loop_
 _symmetry_equiv_pos_site_id
 _symmetry_equiv_pos_as_xyz
  1  'x, y, z'
loop_
 _atom_site_type_symbol
 _atom_site_label
 _atom_site_symmetry_multiplicity
 _atom_site_fract_x
 _atom_site_fract_y
 _atom_site_fract_z
 _atom_site_occupancy
 _atom_site_charge
Al  Al1  1  0.43386000  0.18438000  0.87634000  1.0 1.7534012074
Al  Al2  1  0.18438000  0.43386000  0.62366000  1.0 1.7534012074
Al  Al3  1  0.56614000  0.81562000  0.12366000  1.0 1.7534012074
Al  Al4  1  0.81562000  0.56614000  0.37634000  1.0 1.7534012074
Al  Al5  1  0.52243000  0.68925000  0.83687000  1.0 1.7580118651
Al  Al6  1  0.68925000  0.52243000  0.66313000  1.0 1.7580118651
Al  Al7  1  0.47757000  0.31075000  0.16313000  1.0 1.7580118651
Al  Al8  1  0.31075000  0.47757000  0.33687000  1.0 1.7580118651
Al  Al9  1  0.87705000  0.37865000  0.08127000  1.0 1.767300355
Al  Al10  1  0.37865000  0.87705000  0.41873000  1.0 1.767300355
Al  Al11  1  0.12295000  0.62135000  0.91873000  1.0 1.767300355
Al  Al12  1  0.62135000  0.12295000  0.58127000  1.0 1.767300355
P  P1  1  0.63438000  0.14158000  0.07878000  1.0 1.5004820998
P  P2  1  0.14158000  0.63438000  0.42122000  1.0 1.5004820998
P  P3  1  0.36562000  0.85842000  0.92122000  1.0 1.5004820998
P  P4  1  0.85842000  0.36562000  0.57878000  1.0 1.5004820998
P  P5  1  0.27551000  0.45811000  0.82949000  1.0 1.5156568165
P  P6  1  0.45811000  0.27551000  0.67051000  1.0 1.5156568165
P  P7  1  0.72449000  0.54189000  0.17051000  1.0 1.5156568165
P  P8  1  0.54189000  0.72449000  0.32949000  1.0 1.5156568165
P  P9  1  0.80964000  0.56200000  0.87184000  1.0 1.5284997995
P  P10  1  0.56200000  0.80964000  0.62816000  1.0 1.5284997995
P  P11  1  0.19036000  0.43800000  0.12816000  1.0 1.5284997995
P  P12  1  0.43800000  0.19036000  0.37184000  1.0 1.5284997995
O  O1  1  0.41160000  0.53740000  0.86320000  1.0 -0.8431877916
O  O2  1  0.53740000  0.41160000  0.63680000  1.0 -0.8431877916
O  O3  1  0.58840000  0.46260000  0.13680000  1.0 -0.8431877916
O  O4  1  0.46260000  0.58840000  0.36320000  1.0 -0.8431877916
O  O5  1  0.77260000  0.21500000  0.11130000  1.0 -0.793961299
O  O6  1  0.21500000  0.77260000  0.38870000  1.0 -0.793961299
O  O7  1  0.22740000  0.78500000  0.88870000  1.0 -0.793961299
O  O8  1  0.78500000  0.22740000  0.61130000  1.0 -0.793961299
O  O9  1  0.29800000  0.30020000  0.85960000  1.0 -0.8104112511
O  O10  1  0.30020000  0.29800000  0.64040000  1.0 -0.8104112511
O  O11  1  0.70200000  0.69980000  0.14040000  1.0 -0.8104112511
O  O12  1  0.69980000  0.70200000  0.35960000  1.0 -0.8104112511
O  O13  1  0.85040000  0.43540000  0.95340000  1.0 -0.8222455677
O  O14  1  0.43540000  0.85040000  0.54660000  1.0 -0.8222455677
O  O15  1  0.14960000  0.56460000  0.04660000  1.0 -0.8222455677
O  O16  1  0.56460000  0.14960000  0.45340000  1.0 -0.8222455677
O  O17  1  0.16400000  0.48400000  0.87300000  1.0 -0.8104112511
O  O18  1  0.48400000  0.16400000  0.62700000  1.0 -0.8104112511
O  O19  1  0.83600000  0.51600000  0.12700000  1.0 -0.8104112511
O  O20  1  0.51600000  0.83600000  0.37300000  1.0 -0.8104112511
O  O21  1  0.52160000  0.17520000  0.12020000  1.0 -0.8272437697
O  O22  1  0.17520000  0.52160000  0.37980000  1.0 -0.8272437697
O  O23  1  0.47840000  0.82480000  0.87980000  1.0 -0.8272437697
O  O24  1  0.82480000  0.47840000  0.62020000  1.0 -0.8272437697
O  O25  1  0.58570000  0.18650000  0.97240000  1.0 -0.8272437697
O  O26  1  0.18650000  0.58570000  0.52760000  1.0 -0.8222455677
O  O27  1  0.41430000  0.81350000  0.02760000  1.0 -0.8272437697
O  O28  1  0.81350000  0.41430000  0.47240000  1.0 -0.8222455677
O  O29  1  0.69910000  0.64630000  0.88620000  1.0 -0.8222455677
O  O30  1  0.64630000  0.69910000  0.61380000  1.0 -0.8222455677
O  O31  1  0.30090000  0.35370000  0.11380000  1.0 -0.8222455677
O  O32  1  0.35370000  0.30090000  0.38620000  1.0 -0.8222455677
O  O33  1  0.93850000  0.66270000  0.86340000  1.0 -0.8104112511
O  O34  1  0.66270000  0.93850000  0.63660000  1.0 -0.8104112511
O  O35  1  0.06150000  0.33730000  0.13660000  1.0 -0.8104112511
O  O36  1  0.33730000  0.06150000  0.36340000  1.0 -0.8104112511
O  O37  1  0.22830000  0.50970000  0.72300000  1.0 -0.8272437697
O  O38  1  0.50970000  0.22830000  0.77700000  1.0 -0.8272437697
O  O39  1  0.77170000  0.49030000  0.27700000  1.0 -0.8272437697
O  O40  1  0.49030000  0.77170000  0.22300000  1.0 -0.8272437697
O  O41  1  0.75270000  0.50570000  0.78520000  1.0 -0.8222455677
O  O42  1  0.50570000  0.75270000  0.71480000  1.0 -0.8222455677
O  O43  1  0.24730000  0.49430000  0.21480000  1.0 -0.8222455677
O  O44  1  0.49430000  0.24730000  0.28520000  1.0 -0.8222455677
O  O45  1  0.65560000  0.98560000  0.10920000  1.0 -0.8104112511
O  O46  1  0.98560000  0.65560000  0.39080000  1.0 -0.8047677999
O  O47  1  0.34440000  0.01440000  0.89080000  1.0 -0.8104112511
O  O48  1  0.01440000  0.34440000  0.60920000  1.0 -0.8104112511
