# DDEC6 charges by PACMAN v1.1 (https://github.com/mtap-research/PACMAN-charge/)
data_YOPPAW_FSR_pacman
_symmetry_space_group_name_H-M   'P 1'
_cell_length_a   10.10000000
_cell_length_b   13.97800000
_cell_length_c   14.48100000
_cell_angle_alpha   63.11900000
_cell_angle_beta   71.81100000
_cell_angle_gamma   79.58800000
_symmetry_Int_Tables_number   1
_chemical_formula_structural   Cd2H27C28N3O10
_chemical_formula_sum   'Cd4 H54 C56 N6 O20'
_cell_volume   1730.48569950
_cell_formula_units_Z   2
loop_
 _symmetry_equiv_pos_site_id
 _symmetry_equiv_pos_as_xyz
  1  'x, y, z'
loop_
 _atom_site_type_symbol
 _atom_site_label
 _atom_site_symmetry_multiplicity
 _atom_site_fract_x
 _atom_site_fract_y
 _atom_site_fract_z
 _atom_site_occupancy
 _atom_site_charge
Cd  Cd1  1  0.19568000  0.03405000  0.39392000  1.0 0.880494381
Cd  Cd2  1  0.80432000  0.96595000  0.60608000  1.0 0.880494381
Cd  Cd3  1  0.76810000  0.92863000  0.02594000  1.0 0.8858720114
Cd  Cd4  1  0.23190000  0.07137000  0.97406000  1.0 0.880494381
H  H1  1  0.99070000  0.92120000  0.10300000  1.0 0.3660242384
H  H2  1  0.00930000  0.07880000  0.89700000  1.0 0.3660242384
H  H3  1  0.87580000  0.90070000  0.19130000  1.0 0.3334574302
H  H4  1  0.12420000  0.09930000  0.80870000  1.0 0.3334574302
H  H5  1  0.59210000  0.90150000  0.93180000  1.0 0.3660242384
H  H6  1  0.40790000  0.09850000  0.06820000  1.0 0.3660242384
H  H7  1  0.57300000  0.00930000  0.91190000  1.0 0.3368374755
H  H8  1  0.42700000  0.99070000  0.08810000  1.0 0.3368374755
H  H9  1  0.21260000  0.77340000  0.54480000  1.0 0.1090494705
H  H10  1  0.78740000  0.22660000  0.45520000  1.0 0.1090494705
H  H11  1  0.17830000  0.61600000  0.55060000  1.0 0.1314117847
H  H12  1  0.82170000  0.38400000  0.44940000  1.0 0.1314117847
H  H13  1  0.15200000  0.75770000  0.25450000  1.0 0.149137312
H  H14  1  0.84800000  0.24230000  0.74550000  1.0 0.149137312
H  H15  1  0.17670000  0.92370000  0.24810000  1.0 0.1210330576
H  H16  1  0.82330000  0.07630000  0.75190000  1.0 0.1210330576
H  H17  1  0.04170000  0.57570000  0.36890000  1.0 0.0995120742
H  H18  1  0.95830000  0.42430000  0.63110000  1.0 0.0995120742
H  H19  1  0.11500000  0.45140000  0.55600000  1.0 0.0995120742
H  H20  1  0.88500000  0.54860000  0.44400000  1.0 0.0995120742
H  H21  1  0.17700000  0.26060000  0.60830000  1.0 0.1314117847
H  H22  1  0.82300000  0.73940000  0.39170000  1.0 0.1314117847
H  H23  1  0.19750000  0.11700000  0.56760000  1.0 0.1090494705
H  H24  1  0.80250000  0.88300000  0.43240000  1.0 0.1090494705
H  H25  1  0.18460000  0.29400000  0.27390000  1.0 0.1210330576
H  H26  1  0.81540000  0.70600000  0.72610000  1.0 0.1210330576
H  H27  1  0.15820000  0.44570000  0.30140000  1.0 0.149137312
H  H28  1  0.84180000  0.55430000  0.69860000  1.0 0.149137312
H  H29  1  0.60210000  0.86260000  0.27620000  1.0 0.1210330576
H  H30  1  0.39790000  0.13740000  0.72380000  1.0 0.1210330576
H  H31  1  0.53350000  0.70680000  0.43110000  1.0 0.1378075829
H  H32  1  0.46650000  0.29320000  0.56890000  1.0 0.1378075829
H  H33  1  0.51780000  0.56700000  0.25330000  1.0 0.149137312
H  H34  1  0.48220000  0.43300000  0.74670000  1.0 0.149137312
H  H35  1  0.58230000  0.72280000  0.10170000  1.0 0.1210330576
H  H36  1  0.41770000  0.27720000  0.89830000  1.0 0.1210330576
H  H37  1  0.46910000  0.45740000  0.44170000  1.0 0.1210330576
H  H38  1  0.53090000  0.54260000  0.55830000  1.0 0.1210330576
H  H39  1  0.58570000  0.22390000  0.23450000  1.0 0.0995120742
H  H40  1  0.41430000  0.77610000  0.76550000  1.0 0.0995120742
H  H41  1  0.67210000  0.06310000  0.35290000  1.0 0.1210330576
H  H42  1  0.32790000  0.93690000  0.64710000  1.0 0.1210330576
H  H43  1  0.75510000  0.03760000  0.25460000  1.0 0.0995120742
H  H44  1  0.24490000  0.96240000  0.74540000  1.0 0.0995120742
H  H45  1  0.78640000  0.21800000  0.28010000  1.0 0.0995120742
H  H46  1  0.21360000  0.78200000  0.71990000  1.0 0.0995120742
H  H47  1  0.94930000  0.28550000  0.13230000  1.0 0.1090494705
H  H48  1  0.05070000  0.71450000  0.86770000  1.0 0.1090494705
H  H49  1  0.75430000  0.34690000  0.08020000  1.0 0.0905344077
H  H50  1  0.24570000  0.65310000  0.91980000  1.0 0.0905344077
H  H51  1  0.84380000  0.30760000  0.99290000  1.0 0.1090494705
H  H52  1  0.15620000  0.69240000  0.00710000  1.0 0.1090494705
H  H53  1  0.60520000  0.26010000  0.06000000  1.0 0.1090494705
H  H54  1  0.39480000  0.73990000  0.94000000  1.0 0.1090494705
C  C1  1  0.19630000  0.77280000  0.48530000  1.0 0.0604847943
C  C2  1  0.80370000  0.22720000  0.51470000  1.0 0.0604847943
C  C3  1  0.17430000  0.67810000  0.48870000  1.0 -0.2073522011
C  C4  1  0.82570000  0.32190000  0.51130000  1.0 -0.2073522011
C  C5  1  0.14650000  0.66850000  0.40610000  1.0 0.149137312
C  C6  1  0.85350000  0.33150000  0.59390000  1.0 0.149137312
C  C7  1  0.15730000  0.76030000  0.31620000  1.0 -0.1999311583
C  C8  1  0.84270000  0.23970000  0.68380000  1.0 -0.1999311583
C  C9  1  0.17660000  0.86150000  0.31070000  1.0 0.0905344077
C  C10  1  0.82340000  0.13850000  0.68930000  1.0 0.0905344077
C  C11  1  0.09400000  0.56680000  0.41480000  1.0 -0.1901567603
C  C12  1  0.90600000  0.43320000  0.58520000  1.0 -0.1901567603
C  C13  1  0.12100000  0.46350000  0.48620000  1.0 -0.1999311583
C  C14  1  0.87900000  0.53650000  0.51380000  1.0 -0.1999311583
C  C15  1  0.15880000  0.37070000  0.45790000  1.0 0.1628465553
C  C16  1  0.84120000  0.62930000  0.54210000  1.0 0.1628465553
C  C17  1  0.17540000  0.26960000  0.54090000  1.0 -0.2073522011
C  C18  1  0.82460000  0.73040000  0.45910000  1.0 -0.2073522011
C  C19  1  0.18900000  0.18540000  0.51390000  1.0 0.0604847943
C  C20  1  0.81100000  0.81460000  0.48610000  1.0 0.0604847943
C  C21  1  0.18100000  0.28730000  0.34150000  1.0 0.0995120742
C  C22  1  0.81900000  0.71270000  0.65850000  1.0 0.0995120742
C  C23  1  0.16490000  0.37870000  0.35750000  1.0 -0.2073522011
C  C24  1  0.83510000  0.62130000  0.64250000  1.0 -0.2073522011
C  C25  1  0.58770000  0.80220000  0.26990000  1.0 0.0905344077
C  C26  1  0.41230000  0.19780000  0.73010000  1.0 0.0905344077
C  C27  1  0.54570000  0.70790000  0.36420000  1.0 -0.1810078459
C  C28  1  0.45430000  0.29210000  0.63580000  1.0 -0.1810078459
C  C29  1  0.52350000  0.62020000  0.35730000  1.0 0.1378075829
C  C30  1  0.47650000  0.37980000  0.64270000  1.0 0.1378075829
C  C31  1  0.53620000  0.62630000  0.25960000  1.0 -0.1810078459
C  C32  1  0.46380000  0.37370000  0.74040000  1.0 -0.1810078459
C  C33  1  0.57640000  0.72020000  0.16820000  1.0 0.0838855704
C  C34  1  0.42360000  0.27980000  0.83180000  1.0 0.0838855704
C  C35  1  0.49510000  0.51130000  0.45240000  1.0 -0.1376519749
C  C36  1  0.50490000  0.48870000  0.54760000  1.0 -0.1376519749
C  C37  1  0.46430000  0.11340000  0.25010000  1.0 0.5778334787
C  C38  1  0.53570000  0.88660000  0.74990000  1.0 0.5778334787
C  C39  1  0.60840000  0.16240000  0.21610000  1.0 -0.1186603779
C  C40  1  0.39160000  0.83760000  0.78390000  1.0 -0.1186603779
C  C41  1  0.71660000  0.09520000  0.27660000  1.0 -0.2073522011
C  C42  1  0.28340000  0.90480000  0.72340000  1.0 -0.2073522011
C  C43  1  0.83330000  0.16320000  0.25480000  1.0 -0.1318395609
C  C44  1  0.16670000  0.83680000  0.74520000  1.0 -0.1318395609
C  C45  1  0.90340000  0.22750000  0.13570000  1.0 -0.1186603779
C  C46  1  0.09660000  0.77250000  0.86430000  1.0 -0.1186603779
C  C47  1  0.79520000  0.28370000  0.06830000  1.0 -0.1901567603
C  C48  1  0.20480000  0.71630000  0.93170000  1.0 -0.1901567603
C  C49  1  0.67660000  0.21250000  0.09420000  1.0 -0.1318395609
C  C50  1  0.32340000  0.78750000  0.90580000  1.0 -0.1318395609
C  C51  1  0.93720000  0.10350000  0.32370000  1.0 0.5879018208
C  C52  1  0.06280000  0.89650000  0.67630000  1.0 0.5879018208
C  C53  1  0.01920000  0.16570000  0.08310000  1.0 0.6084470799
C  C54  1  0.98080000  0.83430000  0.91690000  1.0 0.6084470799
C  C55  1  0.71990000  0.12790000  0.04990000  1.0 0.5879018208
C  C56  1  0.28010000  0.87210000  0.95010000  1.0 0.5879018208
N  N1  1  0.19490000  0.86640000  0.39730000  1.0 -0.240469637
N  N2  1  0.80510000  0.13360000  0.60270000  1.0 -0.240469637
N  N3  1  0.19130000  0.19070000  0.41770000  1.0 -0.2333319137
N  N4  1  0.80870000  0.80930000  0.58230000  1.0 -0.2333319137
N  N5  1  0.60730000  0.80750000  0.17250000  1.0 -0.240469637
N  N6  1  0.39270000  0.19250000  0.82750000  1.0 -0.240469637
O  O1  1  0.43370000  0.03580000  0.34570000  1.0 -0.592050905
O  O2  1  0.56630000  0.96420000  0.65430000  1.0 -0.592050905
O  O3  1  0.91800000  0.88520000  0.13870000  1.0 -0.6625803659
O  O4  1  0.08200000  0.11480000  0.86130000  1.0 -0.6625803659
O  O5  1  0.38050000  0.15610000  0.19570000  1.0 -0.5427173922
O  O6  1  0.61950000  0.84390000  0.80430000  1.0 -0.5427173922
O  O7  1  0.63320000  0.95850000  0.91080000  1.0 -0.6625803659
O  O8  1  0.36680000  0.04150000  0.08920000  1.0 -0.6625803659
O  O9  1  0.88990000  0.04330000  0.42090000  1.0 -0.592050905
O  O10  1  0.11010000  0.95670000  0.57910000  1.0 -0.592050905
O  O11  1  0.06290000  0.12330000  0.27980000  1.0 -0.5169392774
O  O12  1  0.93710000  0.87670000  0.72020000  1.0 -0.5169392774
O  O13  1  0.11230000  0.22270000  0.00300000  1.0 -0.5682949076
O  O14  1  0.88770000  0.77730000  0.99700000  1.0 -0.5682949076
O  O15  1  0.01960000  0.06630000  0.11510000  1.0 -0.5534945677
O  O16  1  0.98040000  0.93370000  0.88490000  1.0 -0.5534945677
O  O17  1  0.65300000  0.04190000  0.09920000  1.0 -0.592050905
O  O18  1  0.34700000  0.95810000  0.90080000  1.0 -0.5953674862
O  O19  1  0.81100000  0.14870000  0.96100000  1.0 -0.5619749675
O  O20  1  0.18900000  0.85130000  0.03900000  1.0 -0.5619749675
