# DDEC6 charges by PACMAN v1.1 (https://github.com/mtap-research/PACMAN-charge/)
data_YOSWUA_FSR_pacman
_symmetry_space_group_name_H-M   'P 1'
_cell_length_a   6.80470000
_cell_length_b   17.81620000
_cell_length_c   14.46810000
_cell_angle_alpha   90.00000000
_cell_angle_beta   90.86800000
_cell_angle_gamma   90.00000000
_symmetry_Int_Tables_number   1
_chemical_formula_structural   Cd3H38C46(NO7)2
_chemical_formula_sum   'Cd6 H76 C92 N4 O28'
_cell_volume   1753.82285700
_cell_formula_units_Z   2
loop_
 _symmetry_equiv_pos_site_id
 _symmetry_equiv_pos_as_xyz
  1  'x, y, z'
loop_
 _atom_site_type_symbol
 _atom_site_label
 _atom_site_symmetry_multiplicity
 _atom_site_fract_x
 _atom_site_fract_y
 _atom_site_fract_z
 _atom_site_occupancy
 _atom_site_charge
Cd  Cd1  1  0.55719000  0.96805000  0.86421000  1.0 0.9870375772
Cd  Cd2  1  0.94281000  0.46805000  0.13579000  1.0 0.9870375772
Cd  Cd3  1  0.44281000  0.03195000  0.13579000  1.0 0.9870375772
Cd  Cd4  1  0.05719000  0.53195000  0.86421000  1.0 0.9870375772
Cd  Cd5  1  0.00000000  0.00000000  0.00000000  1.0 1.0444383402
Cd  Cd6  1  0.50000000  0.50000000  0.00000000  1.0 1.0444383402
H  H1  1  0.73070000  0.40460000  0.79980000  1.0 0.1299920974
H  H2  1  0.76930000  0.90460000  0.20020000  1.0 0.1299920974
H  H3  1  0.26930000  0.59540000  0.20020000  1.0 0.1299920974
H  H4  1  0.23070000  0.09540000  0.79980000  1.0 0.1299920974
H  H5  1  0.86560000  0.23970000  0.97960000  1.0 0.1299920974
H  H6  1  0.63440000  0.73970000  0.02040000  1.0 0.1299920974
H  H7  1  0.13440000  0.76030000  0.02040000  1.0 0.1299920974
H  H8  1  0.36560000  0.26030000  0.97960000  1.0 0.1299920974
H  H9  1  0.66190000  0.18900000  0.72550000  1.0 0.1410060455
H  H10  1  0.83810000  0.68900000  0.27450000  1.0 0.1410060455
H  H11  1  0.33810000  0.81100000  0.27450000  1.0 0.1410060455
H  H12  1  0.16190000  0.31100000  0.72550000  1.0 0.1410060455
H  H13  1  0.67760000  0.42850000  0.63750000  1.0 0.0984933307
H  H14  1  0.82240000  0.92850000  0.36250000  1.0 0.0984933307
H  H15  1  0.32240000  0.57150000  0.36250000  1.0 0.0984933307
H  H16  1  0.17760000  0.07150000  0.63750000  1.0 0.0984933307
H  H17  1  0.47920000  0.41530000  0.68890000  1.0 0.0896327295
H  H18  1  0.02080000  0.91530000  0.31110000  1.0 0.0896327295
H  H19  1  0.52080000  0.58470000  0.31110000  1.0 0.0896327295
H  H20  1  0.97920000  0.08470000  0.68890000  1.0 0.0896327295
H  H21  1  0.67830000  0.38210000  0.46720000  1.0 0.0984933307
H  H22  1  0.82170000  0.88210000  0.53280000  1.0 0.0984933307
H  H23  1  0.32170000  0.61790000  0.53280000  1.0 0.0984933307
H  H24  1  0.17830000  0.11790000  0.46720000  1.0 0.0984933307
H  H25  1  0.51530000  0.40000000  0.32830000  1.0 0.1191086115
H  H26  1  0.98470000  0.90000000  0.67170000  1.0 0.1191086115
H  H27  1  0.48470000  0.60000000  0.67170000  1.0 0.1191086115
H  H28  1  0.01530000  0.10000000  0.32830000  1.0 0.1191086115
H  H29  1  0.01770000  0.43070000  0.46340000  1.0 0.0896327295
H  H30  1  0.48230000  0.93070000  0.53660000  1.0 0.0896327295
H  H31  1  0.98230000  0.56930000  0.53660000  1.0 0.0896327295
H  H32  1  0.51770000  0.06930000  0.46340000  1.0 0.0896327295
H  H33  1  0.18600000  0.42090000  0.60190000  1.0 0.1299920974
H  H34  1  0.31400000  0.92090000  0.39810000  1.0 0.1299920974
H  H35  1  0.81400000  0.57910000  0.39810000  1.0 0.1299920974
H  H36  1  0.68600000  0.07910000  0.60190000  1.0 0.1191086115
H  H37  1  0.61260000  0.28850000  0.61620000  1.0 0.1191086115
H  H38  1  0.88740000  0.78850000  0.38380000  1.0 0.1191086115
H  H39  1  0.38740000  0.71150000  0.38380000  1.0 0.1191086115
H  H40  1  0.11260000  0.21150000  0.61620000  1.0 0.1191086115
H  H41  1  0.94320000  0.87450000  0.87610000  1.0 0.3536723335
H  H42  1  0.55680000  0.37450000  0.12390000  1.0 0.3536723335
H  H43  1  0.05680000  0.12550000  0.12390000  1.0 0.3536723335
H  H44  1  0.44320000  0.62550000  0.87610000  1.0 0.3536723335
H  H45  1  0.02980000  0.93610000  0.83680000  1.0 0.3536723335
H  H46  1  0.47020000  0.43610000  0.16320000  1.0 0.3536723335
H  H47  1  0.97020000  0.06390000  0.16320000  1.0 0.3536723335
H  H48  1  0.52980000  0.56390000  0.83680000  1.0 0.3536723335
H  H49  1  0.47770000  0.23710000  0.60180000  1.0 0.0811197551
H  H50  1  0.02230000  0.73710000  0.39820000  1.0 0.0811197551
H  H51  1  0.52230000  0.76290000  0.39820000  1.0 0.0811197551
H  H52  1  0.97770000  0.26290000  0.60180000  1.0 0.0811197551
H  H53  1  0.68470000  0.25190000  0.55920000  1.0 0.0811197551
H  H54  1  0.81530000  0.75190000  0.44080000  1.0 0.0811197551
H  H55  1  0.31530000  0.74810000  0.44080000  1.0 0.0811197551
H  H56  1  0.18470000  0.24810000  0.55920000  1.0 0.0811197551
H  H57  1  0.71520000  0.34860000  0.43510000  1.0 0.0896327295
H  H58  1  0.78480000  0.84860000  0.56490000  1.0 0.0896327295
H  H59  1  0.28480000  0.65140000  0.56490000  1.0 0.0896327295
H  H60  1  0.21520000  0.15140000  0.43510000  1.0 0.0896327295
H  H61  1  0.54930000  0.41050000  0.31640000  1.0 0.1191086115
H  H62  1  0.95070000  0.91050000  0.68360000  1.0 0.1191086115
H  H63  1  0.45070000  0.58950000  0.68360000  1.0 0.1191086115
H  H64  1  0.04930000  0.08950000  0.31640000  1.0 0.1191086115
H  H65  1  0.03480000  0.36500000  0.43700000  1.0 0.0811197551
H  H66  1  0.46520000  0.86500000  0.56300000  1.0 0.0811197551
H  H67  1  0.96520000  0.63500000  0.56300000  1.0 0.0811197551
H  H68  1  0.53480000  0.13500000  0.43700000  1.0 0.0811197551
H  H69  1  0.20070000  0.30310000  0.55570000  1.0 0.0896327295
H  H70  1  0.29930000  0.80310000  0.44430000  1.0 0.0896327295
H  H71  1  0.79930000  0.69690000  0.44430000  1.0 0.0896327295
H  H72  1  0.70070000  0.19690000  0.55570000  1.0 0.0896327295
H  H73  1  0.56410000  0.36510000  0.65690000  1.0 0.11115675
H  H74  1  0.93590000  0.86510000  0.34310000  1.0 0.11115675
H  H75  1  0.43590000  0.63490000  0.34310000  1.0 0.11115675
H  H76  1  0.06410000  0.13490000  0.65690000  1.0 0.11115675
C  C1  1  0.68580000  0.30032000  0.74671000  1.0 0.11115675
C  C2  1  0.81420000  0.80032000  0.25329000  1.0 0.11115675
C  C3  1  0.31420000  0.69968000  0.25329000  1.0 0.11115675
C  C4  1  0.18580000  0.19968000  0.74671000  1.0 0.11115675
C  C5  1  0.73890000  0.35372000  0.81360000  1.0 -0.2347082566
C  C6  1  0.76110000  0.85372000  0.18640000  1.0 -0.2347082566
C  C7  1  0.26110000  0.64628000  0.18640000  1.0 -0.2350980709
C  C8  1  0.23890000  0.14628000  0.81360000  1.0 -0.2347082566
C  C9  1  0.80420000  0.33051000  0.90096000  1.0 -0.008626479
C  C10  1  0.69580000  0.83051000  0.09904000  1.0 -0.008626479
C  C11  1  0.19580000  0.66949000  0.09904000  1.0 -0.008626479
C  C12  1  0.30420000  0.16949000  0.90096000  1.0 -0.008626479
C  C13  1  0.81980000  0.25493000  0.92174000  1.0 -0.1076557483
C  C14  1  0.68020000  0.75493000  0.07826000  1.0 -0.1076557483
C  C15  1  0.18020000  0.74507000  0.07826000  1.0 -0.1076557483
C  C16  1  0.31980000  0.24507000  0.92174000  1.0 -0.1076557483
C  C17  1  0.76660000  0.20201000  0.85564000  1.0 0.0073052733
C  C18  1  0.73340000  0.70201000  0.14436000  1.0 0.0073052733
C  C19  1  0.23340000  0.79799000  0.14436000  1.0 0.0073052733
C  C20  1  0.26660000  0.29799000  0.85564000  1.0 0.0073052733
C  C21  1  0.69890000  0.22488000  0.76910000  1.0 -0.2543414305
C  C22  1  0.80110000  0.72488000  0.23090000  1.0 -0.2543414305
C  C23  1  0.30110000  0.77512000  0.23090000  1.0 -0.2543414305
C  C24  1  0.19890000  0.27512000  0.76910000  1.0 -0.2543414305
C  C25  1  0.85560000  0.38701000  0.97288000  1.0 0.57314954
C  C26  1  0.64440000  0.88701000  0.02712000  1.0 0.57314954
C  C27  1  0.14440000  0.61299000  0.02712000  1.0 0.57314954
C  C28  1  0.35560000  0.11299000  0.97288000  1.0 0.57314954
C  C29  1  0.77550000  0.12016000  0.87960000  1.0 0.5787675758
C  C30  1  0.72450000  0.62016000  0.12040000  1.0 0.5787675758
C  C31  1  0.22450000  0.87984000  0.12040000  1.0 0.5787675758
C  C32  1  0.27550000  0.37984000  0.87960000  1.0 0.5787675758
C  C33  1  0.56150000  0.39690000  0.63960000  1.0 -0.1818333859
C  C34  1  0.93850000  0.89690000  0.36040000  1.0 -0.1818333859
C  C35  1  0.43850000  0.60310000  0.36040000  1.0 -0.1818333859
C  C36  1  0.06150000  0.10310000  0.63960000  1.0 -0.1818333859
C  C37  1  0.45090000  0.40260000  0.54910000  1.0 -0.0208320539
C  C38  1  0.04910000  0.90260000  0.45090000  1.0 -0.0208320539
C  C39  1  0.54910000  0.59740000  0.45090000  1.0 -0.0208320539
C  C40  1  0.95090000  0.09740000  0.54910000  1.0 -0.0208320539
C  C41  1  0.54530000  0.39420000  0.46680000  1.0 -0.008626479
C  C42  1  0.95470000  0.89420000  0.53320000  1.0 -0.008626479
C  C43  1  0.45470000  0.60580000  0.53320000  1.0 -0.008626479
C  C44  1  0.04530000  0.10580000  0.46680000  1.0 -0.008626479
C  C45  1  0.44660000  0.40310000  0.38330000  1.0 -0.0814852548
C  C46  1  0.05340000  0.90310000  0.61670000  1.0 -0.0814852548
C  C47  1  0.55340000  0.59690000  0.61670000  1.0 -0.0814852548
C  C48  1  0.94660000  0.09690000  0.38330000  1.0 -0.0814852548
C  C49  1  0.24800000  0.41670000  0.38100000  1.0 0.0402526078
C  C50  1  0.25200000  0.91670000  0.61900000  1.0 0.0402526078
C  C51  1  0.75200000  0.58330000  0.61900000  1.0 0.0402526078
C  C52  1  0.74800000  0.08330000  0.38100000  1.0 0.0402526078
C  C53  1  0.15270000  0.42240000  0.46350000  1.0 -0.0814852548
C  C54  1  0.34730000  0.92240000  0.53650000  1.0 -0.0814852548
C  C55  1  0.84730000  0.57760000  0.53650000  1.0 -0.0814852548
C  C56  1  0.65270000  0.07760000  0.46350000  1.0 -0.0814852548
C  C57  1  0.25350000  0.41600000  0.54690000  1.0 -0.1936184089
C  C58  1  0.24650000  0.91600000  0.45310000  1.0 -0.1936184089
C  C59  1  0.74650000  0.58400000  0.45310000  1.0 -0.1936184089
C  C60  1  0.75350000  0.08400000  0.54690000  1.0 -0.1936184089
C  C61  1  0.14000000  0.42953000  0.29130000  1.0 0.4250316699
C  C62  1  0.36000000  0.92953000  0.70870000  1.0 0.4250316699
C  C63  1  0.86000000  0.57047000  0.70870000  1.0 0.4248803337
C  C64  1  0.64000000  0.07047000  0.29130000  1.0 0.4250316699
C  C65  1  0.56700000  0.27600000  0.58200000  1.0 -0.2024426977
C  C66  1  0.93300000  0.77600000  0.41800000  1.0 -0.2024426977
C  C67  1  0.43300000  0.72400000  0.41800000  1.0 -0.2024426977
C  C68  1  0.06700000  0.22400000  0.58200000  1.0 -0.2024426977
C  C69  1  0.47400000  0.31970000  0.50710000  1.0 0.0326577113
C  C70  1  0.02600000  0.81970000  0.49290000  1.0 0.0326577113
C  C71  1  0.52600000  0.68030000  0.49290000  1.0 0.0326577113
C  C72  1  0.97400000  0.18030000  0.50710000  1.0 0.0326577113
C  C73  1  0.57900000  0.35200000  0.43500000  1.0 -0.093150293
C  C74  1  0.92100000  0.85200000  0.56500000  1.0 -0.093150293
C  C75  1  0.42100000  0.64800000  0.56500000  1.0 -0.093150293
C  C76  1  0.07900000  0.14800000  0.43500000  1.0 -0.093150293
C  C77  1  0.47900000  0.38900000  0.36400000  1.0 -0.0661862264
C  C78  1  0.02100000  0.88900000  0.63600000  1.0 -0.0661862264
C  C79  1  0.52100000  0.61100000  0.63600000  1.0 -0.0661862264
C  C80  1  0.97900000  0.11100000  0.36400000  1.0 -0.0661862264
C  C81  1  0.27600000  0.39400000  0.36490000  1.0 0.0402526078
C  C82  1  0.22400000  0.89400000  0.63510000  1.0 0.0402526078
C  C83  1  0.72400000  0.60600000  0.63510000  1.0 0.0402526078
C  C84  1  0.77600000  0.10600000  0.36490000  1.0 0.0402526078
C  C85  1  0.17100000  0.36170000  0.43660000  1.0 -0.0591365439
C  C86  1  0.32900000  0.86170000  0.56340000  1.0 -0.0591365439
C  C87  1  0.82900000  0.63830000  0.56340000  1.0 -0.0591365439
C  C88  1  0.67100000  0.13830000  0.43660000  1.0 -0.0591365439
C  C89  1  0.27100000  0.32460000  0.50770000  1.0 -0.1608672659
C  C90  1  0.22900000  0.82460000  0.49230000  1.0 -0.1608672659
C  C91  1  0.72900000  0.67540000  0.49230000  1.0 -0.1608672659
C  C92  1  0.77100000  0.17540000  0.50770000  1.0 -0.1608672659
N  N1  1  0.61920000  0.32158000  0.65942000  1.0 -0.0814852548
N  N2  1  0.88080000  0.82158000  0.34058000  1.0 -0.0814852548
N  N3  1  0.38080000  0.67842000  0.34058000  1.0 -0.0814852548
N  N4  1  0.11920000  0.17842000  0.65942000  1.0 -0.0814852548
O  O1  1  0.68730000  0.07476000  0.82663000  1.0 -0.5555140595
O  O2  1  0.81270000  0.57476000  0.17337000  1.0 -0.5555140595
O  O3  1  0.31270000  0.92524000  0.17337000  1.0 -0.5555140595
O  O4  1  0.18730000  0.42524000  0.82663000  1.0 -0.5555140595
O  O5  1  0.86660000  0.10315000  0.95256000  1.0 -0.5748226265
O  O6  1  0.63340000  0.60315000  0.04744000  1.0 -0.5748226265
O  O7  1  0.13340000  0.89685000  0.04744000  1.0 -0.5752367596
O  O8  1  0.36660000  0.39685000  0.95256000  1.0 -0.5748226265
O  O9  1  0.93310000  0.36549000  0.04767000  1.0 -0.5108244936
O  O10  1  0.56690000  0.86549000  0.95233000  1.0 -0.5108244936
O  O11  1  0.06690000  0.63451000  0.95233000  1.0 -0.5108244936
O  O12  1  0.43310000  0.13451000  0.04767000  1.0 -0.5108244936
O  O13  1  0.81900000  0.45686000  0.95913000  1.0 -0.6274628858
O  O14  1  0.68100000  0.95686000  0.04087000  1.0 -0.6274628858
O  O15  1  0.18100000  0.54314000  0.04087000  1.0 -0.6274628858
O  O16  1  0.31900000  0.04314000  0.95913000  1.0 -0.6274628858
O  O17  1  0.23270000  0.44818000  0.22023000  1.0 -0.5108244936
O  O18  1  0.26730000  0.94818000  0.77977000  1.0 -0.5108244936
O  O19  1  0.76730000  0.55182000  0.77977000  1.0 -0.5108244936
O  O20  1  0.73270000  0.05182000  0.22023000  1.0 -0.5108244936
O  O21  1  0.95730000  0.42519000  0.28889000  1.0 -0.4942388306
O  O22  1  0.54270000  0.92519000  0.71111000  1.0 -0.4942388306
O  O23  1  0.04270000  0.57481000  0.71111000  1.0 -0.4942388306
O  O24  1  0.45730000  0.07481000  0.28889000  1.0 -0.4942388306
O  O25  1  0.92510000  0.92792000  0.86652000  1.0 -0.7103888015
O  O26  1  0.57490000  0.42792000  0.13348000  1.0 -0.7103888015
O  O27  1  0.07490000  0.07208000  0.13348000  1.0 -0.7103888015
O  O28  1  0.42510000  0.57208000  0.86652000  1.0 -0.7103888015
