# DDEC6 charges by PACMAN v1.1 (https://github.com/mtap-research/PACMAN-charge/)
data_YOTXOW_FSR_pacman
_symmetry_space_group_name_H-M   'P 1'
_cell_length_a   18.45430000
_cell_length_b   18.45430000
_cell_length_c   6.51553000
_cell_angle_alpha   88.79080000
_cell_angle_beta   91.20920000
_cell_angle_gamma   143.60000000
_symmetry_Int_Tables_number   1
_chemical_formula_structural   Al3C16N2O17
_chemical_formula_sum   'Al6 C32 N4 O34'
_cell_volume   1316.43397693
_cell_formula_units_Z   2
loop_
 _symmetry_equiv_pos_site_id
 _symmetry_equiv_pos_as_xyz
  1  'x, y, z'
loop_
 _atom_site_type_symbol
 _atom_site_label
 _atom_site_symmetry_multiplicity
 _atom_site_fract_x
 _atom_site_fract_y
 _atom_site_fract_z
 _atom_site_occupancy
 _atom_site_charge
Al  Al1  1  0.06280000  0.50457000  0.12923000  1.0 1.4966087793
Al  Al2  1  0.50457000  0.06280000  0.37077000  1.0 1.4944587603
Al  Al3  1  0.93720000  0.49543000  0.87077000  1.0 1.4944587603
Al  Al4  1  0.49543000  0.93720000  0.62923000  1.0 1.4944587603
Al  Al5  1  0.00000000  0.00000000  0.00000000  1.0 1.6243695473
Al  Al6  1  0.00000000  0.00000000  0.50000000  1.0 1.6243695473
C  C1  1  0.24250000  0.55947000  0.93503000  1.0 0.5792287444
C  C2  1  0.55947000  0.24250000  0.56497000  1.0 0.5792287444
C  C3  1  0.75750000  0.44053000  0.06497000  1.0 0.5792287444
C  C4  1  0.44053000  0.75750000  0.43503000  1.0 0.5792287444
C  C5  1  0.15430000  0.43767000  0.04263000  1.0 0.0997608346
C  C6  1  0.43767000  0.15430000  0.45737000  1.0 0.0997608346
C  C7  1  0.84570000  0.56233000  0.95737000  1.0 0.0997608346
C  C8  1  0.56233000  0.84570000  0.54263000  1.0 0.0997608346
C  C9  1  0.15320000  0.35877000  0.05943000  1.0 0.108969931
C  C10  1  0.35877000  0.15320000  0.44057000  1.0 0.108969931
C  C11  1  0.84680000  0.64123000  0.94057000  1.0 0.108969931
C  C12  1  0.64123000  0.84680000  0.55943000  1.0 0.108969931
C  C13  1  0.09220000  0.27777000  0.22443000  1.0 -0.0908497024
C  C14  1  0.27777000  0.09220000  0.27557000  1.0 -0.0908497024
C  C15  1  0.90780000  0.72223000  0.77557000  1.0 -0.0908497024
C  C16  1  0.72223000  0.90780000  0.72443000  1.0 -0.0908497024
C  C17  1  0.00700000  0.24897000  0.33903000  1.0 0.0688883146
C  C18  1  0.24897000  0.00700000  0.16097000  1.0 0.0688883146
C  C19  1  0.99300000  0.75103000  0.66097000  1.0 0.0688883146
C  C20  1  0.75103000  0.99300000  0.83903000  1.0 0.0688883146
C  C21  1  0.99860000  0.31737000  0.30223000  1.0 0.0863349927
C  C22  1  0.31737000  0.99860000  0.19777000  1.0 0.0863349927
C  C23  1  0.00140000  0.68263000  0.69777000  1.0 0.0863349927
C  C24  1  0.68263000  0.00140000  0.80223000  1.0 0.0863349927
C  C25  1  0.91800000  0.30797000  0.40803000  1.0 0.5454755877
C  C26  1  0.30797000  0.91800000  0.09197000  1.0 0.5454755877
C  C27  1  0.08200000  0.69203000  0.59197000  1.0 0.5447909092
C  C28  1  0.69203000  0.08200000  0.90803000  1.0 0.5447909092
C  C29  1  0.07830000  0.18367000  0.23063000  1.0 0.6667327737
C  C30  1  0.18367000  0.07830000  0.26937000  1.0 0.6667327737
C  C31  1  0.92170000  0.81633000  0.76937000  1.0 0.6667327737
C  C32  1  0.81633000  0.92170000  0.73063000  1.0 0.6667327737
N  N1  1  0.08137000  0.41460000  0.16877000  1.0 -0.2694740365
N  N2  1  0.41460000  0.08137000  0.33123000  1.0 -0.2694740365
N  N3  1  0.91863000  0.58540000  0.83123000  1.0 -0.2694740365
N  N4  1  0.58540000  0.91863000  0.66877000  1.0 -0.2694740365
O  O1  1  0.20070000  0.58887000  0.96583000  1.0 -0.4778060461
O  O2  1  0.58887000  0.20070000  0.53417000  1.0 -0.4778060461
O  O3  1  0.79930000  0.41113000  0.03417000  1.0 -0.4778060461
O  O4  1  0.41113000  0.79930000  0.46583000  1.0 -0.4778060461
O  O5  1  0.31490000  0.58667000  0.81923000  1.0 -0.4778060461
O  O6  1  0.58667000  0.31490000  0.68077000  1.0 -0.4778060461
O  O7  1  0.68510000  0.41333000  0.18077000  1.0 -0.4778060461
O  O8  1  0.41333000  0.68510000  0.31923000  1.0 -0.4778060461
O  O9  1  0.94300000  0.39657000  0.35643000  1.0 -0.4526601726
O  O10  1  0.39657000  0.94300000  0.14357000  1.0 -0.4526601726
O  O11  1  0.05700000  0.60343000  0.64357000  1.0 -0.4526601726
O  O12  1  0.60343000  0.05700000  0.85643000  1.0 -0.4526601726
O  O13  1  0.83110000  0.22287000  0.52723000  1.0 -0.3532462264
O  O14  1  0.22287000  0.83110000  0.97277000  1.0 -0.3532462264
O  O15  1  0.16890000  0.77713000  0.47277000  1.0 -0.3532462264
O  O16  1  0.77713000  0.16890000  0.02723000  1.0 -0.3532462264
O  O17  1  0.08990000  0.15947000  0.05843000  1.0 -0.541787609
O  O18  1  0.15947000  0.08990000  0.44157000  1.0 -0.541787609
O  O19  1  0.91010000  0.84053000  0.94157000  1.0 -0.541787609
O  O20  1  0.84053000  0.91010000  0.55843000  1.0 -0.541787609
O  O21  1  0.05160000  0.13617000  0.41043000  1.0 -0.541787609
O  O22  1  0.13617000  0.05160000  0.08957000  1.0 -0.541787609
O  O23  1  0.94840000  0.86383000  0.58957000  1.0 -0.541787609
O  O24  1  0.86383000  0.94840000  0.91043000  1.0 -0.541787609
O  O25  1  0.94890000  0.40787000  0.92303000  1.0 -0.7504808451
O  O26  1  0.40787000  0.94890000  0.57697000  1.0 -0.7504808451
O  O27  1  0.05110000  0.59213000  0.07697000  1.0 -0.7504808451
O  O28  1  0.59213000  0.05110000  0.42303000  1.0 -0.7504808451
O  O29  1  0.16980000  0.62117000  0.34763000  1.0 -0.095613643
O  O30  1  0.62117000  0.16980000  0.15237000  1.0 -0.0908497024
O  O31  1  0.83020000  0.37883000  0.65237000  1.0 -0.0908497024
O  O32  1  0.37883000  0.83020000  0.84763000  1.0 -0.0908497024
O  O33  1  0.92398000  0.92398000  0.25000000  1.0 -0.8285817946
O  O34  1  0.07602000  0.07602000  0.75000000  1.0 -0.8285817946
