# DDEC6 charges by PACMAN v1.1 (https://github.com/mtap-research/PACMAN-charge/)
data_YOVNUU_FSR_pacman
_symmetry_space_group_name_H-M   'P 1'
_cell_length_a   9.00610000
_cell_length_b   31.49800000
_cell_length_c   18.08930000
_cell_angle_alpha   90.00000000
_cell_angle_beta   119.27300000
_cell_angle_gamma   90.00000000
_symmetry_Int_Tables_number   1
_chemical_formula_structural   NiH35C50(N5O2)2
_chemical_formula_sum   'Ni4 H140 C200 N40 O16'
_cell_volume   4476.17722934
_cell_formula_units_Z   4
loop_
 _symmetry_equiv_pos_site_id
 _symmetry_equiv_pos_as_xyz
  1  'x, y, z'
loop_
 _atom_site_type_symbol
 _atom_site_label
 _atom_site_symmetry_multiplicity
 _atom_site_fract_x
 _atom_site_fract_y
 _atom_site_fract_z
 _atom_site_occupancy
 _atom_site_charge
Ni  Ni1  1  0.81629000  0.83636000  0.52030000  1.0 0.6886039658
Ni  Ni2  1  0.18371000  0.33636000  0.97970000  1.0 0.6886039658
Ni  Ni3  1  0.18371000  0.16364000  0.47970000  1.0 0.6886039658
Ni  Ni4  1  0.81629000  0.66364000  0.02030000  1.0 0.6886039658
H  H1  1  0.42450000  0.84270000  0.49940000  1.0 0.0537964462
H  H2  1  0.57550000  0.34270000  0.00060000  1.0 0.0537964462
H  H3  1  0.57550000  0.15730000  0.50060000  1.0 0.0537964462
H  H4  1  0.42450000  0.65730000  0.99940000  1.0 0.0537964462
H  H5  1  0.25140000  0.77710000  0.48790000  1.0 0.0610582634
H  H6  1  0.74860000  0.27710000  0.01210000  1.0 0.0610582634
H  H7  1  0.74860000  0.22290000  0.51210000  1.0 0.0610582634
H  H8  1  0.25140000  0.72290000  0.98790000  1.0 0.0610582634
H  H9  1  0.65890000  0.74010000  0.46050000  1.0 0.0610582634
H  H10  1  0.34110000  0.24010000  0.03950000  1.0 0.070356878
H  H11  1  0.34110000  0.25990000  0.53950000  1.0 0.0610582634
H  H12  1  0.65890000  0.75990000  0.96050000  1.0 0.0610582634
H  H13  1  0.39140000  0.68330000  0.36420000  1.0 0.1094434189
H  H14  1  0.60860000  0.18330000  0.13580000  1.0 0.1094434189
H  H15  1  0.60860000  0.31670000  0.63580000  1.0 0.1094434189
H  H16  1  0.39140000  0.81670000  0.86420000  1.0 0.1094434189
H  H17  1  0.31910000  0.61210000  0.36570000  1.0 0.1094434189
H  H18  1  0.68090000  0.11210000  0.13430000  1.0 0.1094434189
H  H19  1  0.68090000  0.38790000  0.63430000  1.0 0.1094434189
H  H20  1  0.31910000  0.88790000  0.86570000  1.0 0.1094434189
H  H21  1  0.28380000  0.63380000  0.57740000  1.0 0.0911114959
H  H22  1  0.71620000  0.13380000  0.92260000  1.0 0.0911114959
H  H23  1  0.71620000  0.36620000  0.42260000  1.0 0.0911114959
H  H24  1  0.28380000  0.86620000  0.07740000  1.0 0.0911114959
H  H25  1  0.35610000  0.70500000  0.57590000  1.0 0.0911114959
H  H26  1  0.64390000  0.20500000  0.92410000  1.0 0.0911114959
H  H27  1  0.64390000  0.29500000  0.42410000  1.0 0.0911114959
H  H28  1  0.35610000  0.79500000  0.07590000  1.0 0.0911114959
H  H29  1  0.04380000  0.57030000  0.35400000  1.0 0.120582131
H  H30  1  0.95620000  0.07030000  0.14600000  1.0 0.120582131
H  H31  1  0.95620000  0.42970000  0.64600000  1.0 0.120582131
H  H32  1  0.04380000  0.92970000  0.85400000  1.0 0.120582131
H  H33  1  0.14780000  0.45600000  0.47090000  1.0 0.1094434189
H  H34  1  0.85220000  0.95600000  0.02910000  1.0 0.1094434189
H  H35  1  0.85220000  0.54400000  0.52910000  1.0 0.1094434189
H  H36  1  0.14780000  0.04400000  0.97090000  1.0 0.1094434189
H  H37  1  0.44700000  0.55670000  0.59020000  1.0 0.1094434189
H  H38  1  0.55300000  0.05670000  0.90980000  1.0 0.1094434189
H  H39  1  0.55300000  0.44330000  0.40980000  1.0 0.1094434189
H  H40  1  0.44700000  0.94330000  0.09020000  1.0 0.1094434189
H  H41  1  0.90850000  0.53570000  0.23980000  1.0 0.120582131
H  H42  1  0.09150000  0.03570000  0.26020000  1.0 0.120582131
H  H43  1  0.09150000  0.46430000  0.76020000  1.0 0.120582131
H  H44  1  0.90850000  0.96430000  0.73980000  1.0 0.120582131
H  H45  1  0.69040000  0.50420000  0.11960000  1.0 0.120582131
H  H46  1  0.30960000  0.00420000  0.38040000  1.0 0.120582131
H  H47  1  0.30960000  0.49580000  0.88040000  1.0 0.120582131
H  H48  1  0.69040000  0.99580000  0.61960000  1.0 0.120582131
H  H49  1  0.66290000  0.40970000  0.26360000  1.0 0.1298660671
H  H50  1  0.33710000  0.90970000  0.23640000  1.0 0.1298660671
H  H51  1  0.33710000  0.59030000  0.73640000  1.0 0.1298660671
H  H52  1  0.66290000  0.09030000  0.76360000  1.0 0.1298660671
H  H53  1  0.88260000  0.44150000  0.38360000  1.0 0.1094434189
H  H54  1  0.11740000  0.94150000  0.11640000  1.0 0.1094434189
H  H55  1  0.11740000  0.55850000  0.61640000  1.0 0.1094434189
H  H56  1  0.88260000  0.05850000  0.88360000  1.0 0.1094434189
H  H57  1  0.32480000  0.41380000  0.91150000  1.0 0.1298660671
H  H58  1  0.67520000  0.91380000  0.58850000  1.0 0.1298660671
H  H59  1  0.67520000  0.58620000  0.08850000  1.0 0.1298660671
H  H60  1  0.32480000  0.08620000  0.41150000  1.0 0.1298660671
H  H61  1  0.55910000  0.46100000  0.00630000  1.0 0.1298660671
H  H62  1  0.44090000  0.96100000  0.49370000  1.0 0.1298660671
H  H63  1  0.44090000  0.53900000  0.99370000  1.0 0.1298660671
H  H64  1  0.55910000  0.03900000  0.50630000  1.0 0.1298660671
H  H65  1  0.42290000  0.38950000  0.14550000  1.0 0.120582131
H  H66  1  0.57710000  0.88950000  0.35450000  1.0 0.120582131
H  H67  1  0.57710000  0.61050000  0.85450000  1.0 0.120582131
H  H68  1  0.42290000  0.11050000  0.64550000  1.0 0.120582131
H  H69  1  0.64840000  0.50220000  0.64540000  1.0 0.120582131
H  H70  1  0.35160000  0.00220000  0.85460000  1.0 0.120582131
H  H71  1  0.35160000  0.49780000  0.35460000  1.0 0.120582131
H  H72  1  0.64840000  0.99780000  0.14540000  1.0 0.120582131
H  H73  1  0.81500000  0.46350000  0.76770000  1.0 0.1298660671
H  H74  1  0.18500000  0.96350000  0.73230000  1.0 0.1298660671
H  H75  1  0.18500000  0.53650000  0.23230000  1.0 0.1298660671
H  H76  1  0.81500000  0.03650000  0.26770000  1.0 0.1298660671
H  H77  1  0.39830000  0.39880000  0.73450000  1.0 0.1445241331
H  H78  1  0.60170000  0.89880000  0.76550000  1.0 0.1445241331
H  H79  1  0.60170000  0.60120000  0.26550000  1.0 0.1445241331
H  H80  1  0.39830000  0.10120000  0.23450000  1.0 0.1445241331
H  H81  1  0.22990000  0.43940000  0.61430000  1.0 0.120582131
H  H82  1  0.77010000  0.93940000  0.88570000  1.0 0.120582131
H  H83  1  0.77010000  0.56060000  0.38570000  1.0 0.120582131
H  H84  1  0.22990000  0.06060000  0.11430000  1.0 0.120582131
H  H85  1  0.83490000  0.35120000  0.00000000  1.0 0.120582131
H  H86  1  0.16510000  0.85120000  0.50000000  1.0 0.120582131
H  H87  1  0.16510000  0.64880000  0.00000000  1.0 0.120582131
H  H88  1  0.83490000  0.14880000  0.50000000  1.0 0.120582131
H  H89  1  0.58130000  0.38880000  0.89300000  1.0 0.1298660671
H  H90  1  0.41870000  0.88880000  0.60700000  1.0 0.1298660671
H  H91  1  0.41870000  0.61120000  0.10700000  1.0 0.1298660671
H  H92  1  0.58130000  0.11120000  0.39300000  1.0 0.1298660671
H  H93  1  0.94790000  0.39640000  0.82930000  1.0 0.120582131
H  H94  1  0.05210000  0.89640000  0.67070000  1.0 0.120582131
H  H95  1  0.05210000  0.60360000  0.17070000  1.0 0.120582131
H  H96  1  0.94790000  0.10360000  0.32930000  1.0 0.120582131
H  H97  1  0.88970000  0.85180000  0.85860000  1.0 0.1094434189
H  H98  1  0.11030000  0.35180000  0.64140000  1.0 0.1094434189
H  H99  1  0.11030000  0.14820000  0.14140000  1.0 0.1094434189
H  H100  1  0.88970000  0.64820000  0.35860000  1.0 0.1094434189
H  H101  1  0.84430000  0.70880000  0.78490000  1.0 0.1298660671
H  H102  1  0.15570000  0.20880000  0.71510000  1.0 0.1298660671
H  H103  1  0.15570000  0.29120000  0.21510000  1.0 0.1298660671
H  H104  1  0.84430000  0.79120000  0.28490000  1.0 0.1298660671
H  H105  1  0.83100000  0.76030000  0.68870000  1.0 0.2487247608
H  H106  1  0.16900000  0.26030000  0.81130000  1.0 0.2487247608
H  H107  1  0.16900000  0.23970000  0.31130000  1.0 0.2487247608
H  H108  1  0.83100000  0.73970000  0.18870000  1.0 0.2487247608
H  H109  1  0.56570000  0.67500000  0.43600000  1.0 0.1094434189
H  H110  1  0.43430000  0.17500000  0.06400000  1.0 0.1094434189
H  H111  1  0.43430000  0.32500000  0.56400000  1.0 0.1094434189
H  H112  1  0.56570000  0.82500000  0.93600000  1.0 0.1094434189
H  H113  1  0.48520000  0.60420000  0.43390000  1.0 0.1094434189
H  H114  1  0.51480000  0.10420000  0.06610000  1.0 0.1094434189
H  H115  1  0.51480000  0.39580000  0.56610000  1.0 0.1094434189
H  H116  1  0.48520000  0.89580000  0.93390000  1.0 0.1094434189
H  H117  1  0.15540000  0.64060000  0.51380000  1.0 0.0911114959
H  H118  1  0.84460000  0.14060000  0.98620000  1.0 0.0911114959
H  H119  1  0.84460000  0.35940000  0.48620000  1.0 0.0911114959
H  H120  1  0.15540000  0.85940000  0.01380000  1.0 0.0911114959
H  H121  1  0.23590000  0.71140000  0.51590000  1.0 0.0911114959
H  H122  1  0.76410000  0.21140000  0.98410000  1.0 0.0911114959
H  H123  1  0.76410000  0.28860000  0.48410000  1.0 0.0911114959
H  H124  1  0.23590000  0.78860000  0.01590000  1.0 0.0911114959
H  H125  1  0.39070000  0.84320000  0.43220000  1.0 0.0610582634
H  H126  1  0.60930000  0.34320000  0.06780000  1.0 0.0610582634
H  H127  1  0.60930000  0.15680000  0.56780000  1.0 0.0610582634
H  H128  1  0.39070000  0.65680000  0.93220000  1.0 0.0610582634
H  H129  1  0.20420000  0.78010000  0.41880000  1.0 0.0610582634
H  H130  1  0.79580000  0.28010000  0.08120000  1.0 0.0610582634
H  H131  1  0.79580000  0.21990000  0.58120000  1.0 0.0610582634
H  H132  1  0.20420000  0.71990000  0.91880000  1.0 0.0610582634
H  H133  1  0.69660000  0.73790000  0.52010000  1.0 0.070356878
H  H134  1  0.30340000  0.23790000  0.97990000  1.0 0.070356878
H  H135  1  0.30340000  0.26210000  0.47990000  1.0 0.070356878
H  H136  1  0.69660000  0.76210000  0.02010000  1.0 0.070356878
H  H137  1  0.90540000  0.80060000  0.95630000  1.0 0.2046890876
H  H138  1  0.09460000  0.30060000  0.54370000  1.0 0.2046890876
H  H139  1  0.09460000  0.19940000  0.04370000  1.0 0.2046890876
H  H140  1  0.90540000  0.69940000  0.45630000  1.0 0.2046890876
C  C1  1  0.44960000  0.81450000  0.49030000  1.0 0.0610582634
C  C2  1  0.55040000  0.31450000  0.00970000  1.0 0.0610582634
C  C3  1  0.55040000  0.18550000  0.50970000  1.0 0.0610582634
C  C4  1  0.44960000  0.68550000  0.99030000  1.0 0.0610582634
C  C5  1  0.35270000  0.77780000  0.48390000  1.0 0.0283100263
C  C6  1  0.64730000  0.27780000  0.01610000  1.0 0.0283100263
C  C7  1  0.64730000  0.22220000  0.51610000  1.0 0.0283100263
C  C8  1  0.35270000  0.72220000  0.98390000  1.0 0.0283100263
C  C9  1  0.58080000  0.75710000  0.46850000  1.0 0.1298660671
C  C10  1  0.41920000  0.25710000  0.03150000  1.0 0.1298660671
C  C11  1  0.41920000  0.24290000  0.53150000  1.0 0.1298660671
C  C12  1  0.58080000  0.74290000  0.96850000  1.0 0.1298660671
C  C13  1  0.38050000  0.70088000  0.46990000  1.0 0.0911114959
C  C14  1  0.61950000  0.20088000  0.03010000  1.0 0.0911114959
C  C15  1  0.61950000  0.29912000  0.53010000  1.0 0.0911114959
C  C16  1  0.38050000  0.79912000  0.96990000  1.0 0.0911114959
C  C17  1  0.36960000  0.67329000  0.40750000  1.0 -0.093570208
C  C18  1  0.63040000  0.17329000  0.09250000  1.0 -0.093570208
C  C19  1  0.63040000  0.32671000  0.59250000  1.0 -0.093570208
C  C20  1  0.36960000  0.82671000  0.90750000  1.0 -0.093570208
C  C21  1  0.32660000  0.63097000  0.40840000  1.0 -0.0512643044
C  C22  1  0.67340000  0.13097000  0.09160000  1.0 -0.0512643044
C  C23  1  0.67340000  0.36903000  0.59160000  1.0 -0.0512643044
C  C24  1  0.32660000  0.86903000  0.90840000  1.0 -0.0512643044
C  C25  1  0.29470000  0.61625000  0.47170000  1.0 -0.0114907685
C  C26  1  0.70530000  0.11625000  0.02830000  1.0 -0.0114907685
C  C27  1  0.70530000  0.38375000  0.52830000  1.0 -0.0114907685
C  C28  1  0.29470000  0.88375000  0.97170000  1.0 -0.0114907685
C  C29  1  0.30560000  0.64385000  0.53410000  1.0 0.0182883938
C  C30  1  0.69440000  0.14385000  0.96590000  1.0 0.0182883938
C  C31  1  0.69440000  0.35615000  0.46590000  1.0 0.0182883938
C  C32  1  0.30560000  0.85615000  0.03410000  1.0 0.0182883938
C  C33  1  0.34860000  0.68616000  0.53330000  1.0 -0.0253512
C  C34  1  0.65140000  0.18616000  0.96670000  1.0 -0.0253512
C  C35  1  0.65140000  0.31384000  0.46670000  1.0 -0.0253512
C  C36  1  0.34860000  0.81384000  0.03330000  1.0 -0.0253512
C  C37  1  0.25410000  0.57052000  0.47200000  1.0 0.0832926063
C  C38  1  0.74590000  0.07052000  0.02800000  1.0 0.0832926063
C  C39  1  0.74590000  0.42948000  0.52800000  1.0 0.0832926063
C  C40  1  0.25410000  0.92948000  0.97200000  1.0 0.0832926063
C  C41  1  0.11240000  0.55296000  0.40170000  1.0 -0.2611232714
C  C42  1  0.88760000  0.05296000  0.09830000  1.0 -0.2611232714
C  C43  1  0.88760000  0.44704000  0.59830000  1.0 -0.2611232714
C  C44  1  0.11240000  0.94704000  0.90170000  1.0 -0.2611232714
C  C45  1  0.07130000  0.51015000  0.40110000  1.0 0.0963764696
C  C46  1  0.92870000  0.01015000  0.09890000  1.0 0.0963764696
C  C47  1  0.92870000  0.48985000  0.59890000  1.0 0.0963764696
C  C48  1  0.07130000  0.98985000  0.90110000  1.0 0.0963764696
C  C49  1  0.17380000  0.48526000  0.47130000  1.0 -0.203174548
C  C50  1  0.82620000  0.98526000  0.02870000  1.0 -0.203174548
C  C51  1  0.82620000  0.51474000  0.52870000  1.0 -0.203174548
C  C52  1  0.17380000  0.01474000  0.97130000  1.0 -0.203174548
C  C53  1  0.31330000  0.50222000  0.54200000  1.0 0.0911114959
C  C54  1  0.68670000  0.00222000  0.95800000  1.0 0.0911114959
C  C55  1  0.68670000  0.49778000  0.45800000  1.0 0.0911114959
C  C56  1  0.31330000  0.99778000  0.04200000  1.0 0.0911114959
C  C57  1  0.35210000  0.54485000  0.54190000  1.0 -0.2522497491
C  C58  1  0.64790000  0.04485000  0.95810000  1.0 -0.2522497491
C  C59  1  0.64790000  0.45515000  0.45810000  1.0 -0.2522497491
C  C60  1  0.35210000  0.95515000  0.04190000  1.0 -0.2522497491
C  C61  1  0.92430000  0.49127000  0.32450000  1.0 0.070356878
C  C62  1  0.07570000  0.99127000  0.17550000  1.0 0.070356878
C  C63  1  0.07570000  0.50873000  0.67550000  1.0 0.070356878
C  C64  1  0.92430000  0.00873000  0.82450000  1.0 0.070356878
C  C65  1  0.86110000  0.50966000  0.24500000  1.0 -0.1096682267
C  C66  1  0.13890000  0.00966000  0.25500000  1.0 -0.1096682267
C  C67  1  0.13890000  0.49034000  0.75500000  1.0 -0.1096682267
C  C68  1  0.86110000  0.99034000  0.74500000  1.0 -0.1096682267
C  C69  1  0.73110000  0.49099000  0.17330000  1.0 -0.1802502738
C  C70  1  0.26890000  0.99099000  0.32670000  1.0 -0.1802502738
C  C71  1  0.26890000  0.50901000  0.82670000  1.0 -0.1802502738
C  C72  1  0.73110000  0.00901000  0.67330000  1.0 -0.1802502738
C  C73  1  0.66010000  0.45300000  0.17980000  1.0 0.1631039961
C  C74  1  0.33990000  0.95300000  0.32020000  1.0 0.1631039961
C  C75  1  0.33990000  0.54700000  0.82020000  1.0 0.1631039961
C  C76  1  0.66010000  0.04700000  0.67980000  1.0 0.1631039961
C  C77  1  0.71450000  0.43501000  0.25830000  1.0 -0.1866439597
C  C78  1  0.28550000  0.93501000  0.24170000  1.0 -0.1866439597
C  C79  1  0.28550000  0.56499000  0.74170000  1.0 -0.1866439597
C  C80  1  0.71450000  0.06499000  0.75830000  1.0 -0.1866439597
C  C81  1  0.84550000  0.45412000  0.32960000  1.0 -0.128580203
C  C82  1  0.15450000  0.95412000  0.17040000  1.0 -0.128580203
C  C83  1  0.15450000  0.54588000  0.67040000  1.0 -0.128580203
C  C84  1  0.84550000  0.04588000  0.82960000  1.0 -0.128580203
C  C85  1  0.37470000  0.41487000  0.97140000  1.0 -0.0407599003
C  C86  1  0.62530000  0.91487000  0.52860000  1.0 -0.0407599003
C  C87  1  0.62530000  0.58513000  0.02860000  1.0 -0.0407599003
C  C88  1  0.37470000  0.08513000  0.47140000  1.0 -0.0407599003
C  C89  1  0.50230000  0.44093000  0.02290000  1.0 -0.128580203
C  C90  1  0.49770000  0.94093000  0.47710000  1.0 -0.128580203
C  C91  1  0.49770000  0.55907000  0.97710000  1.0 -0.128580203
C  C92  1  0.50230000  0.05907000  0.52290000  1.0 -0.128580203
C  C93  1  0.42710000  0.40161000  0.09850000  1.0 0.1094434189
C  C94  1  0.57290000  0.90161000  0.40150000  1.0 0.1094434189
C  C95  1  0.57290000  0.59839000  0.90150000  1.0 0.1094434189
C  C96  1  0.42710000  0.09839000  0.59850000  1.0 0.1094434189
C  C97  1  0.41990000  0.47552000  0.61750000  1.0 0.070356878
C  C98  1  0.58010000  0.97552000  0.88250000  1.0 0.070356878
C  C99  1  0.58010000  0.52448000  0.38250000  1.0 0.070356878
C  C100  1  0.41990000  0.02448000  0.11750000  1.0 0.070356878
C  C101  1  0.59660000  0.48161000  0.66390000  1.0 -0.128580203
C  C102  1  0.40340000  0.98161000  0.83610000  1.0 -0.128580203
C  C103  1  0.40340000  0.51839000  0.33610000  1.0 -0.128580203
C  C104  1  0.59660000  0.01839000  0.16390000  1.0 -0.128580203
C  C105  1  0.69610000  0.45827000  0.73590000  1.0 -0.1866439597
C  C106  1  0.30390000  0.95827000  0.76410000  1.0 -0.1866439597
C  C107  1  0.30390000  0.54173000  0.26410000  1.0 -0.1866439597
C  C108  1  0.69610000  0.04173000  0.23590000  1.0 -0.1866439597
C  C109  1  0.62320000  0.42731000  0.76180000  1.0 0.1474020093
C  C110  1  0.37680000  0.92731000  0.73820000  1.0 0.1474020093
C  C111  1  0.37680000  0.57269000  0.23820000  1.0 0.1474020093
C  C112  1  0.62320000  0.07269000  0.26180000  1.0 0.1474020093
C  C113  1  0.44860000  0.42003000  0.71660000  1.0 -0.1729678975
C  C114  1  0.55140000  0.92003000  0.78340000  1.0 -0.1729678975
C  C115  1  0.55140000  0.57997000  0.28340000  1.0 -0.1729678975
C  C116  1  0.44860000  0.07997000  0.21660000  1.0 -0.1729678975
C  C117  1  0.34920000  0.44424000  0.64520000  1.0 -0.128580203
C  C118  1  0.65080000  0.94424000  0.85480000  1.0 -0.128580203
C  C119  1  0.65080000  0.55576000  0.35480000  1.0 -0.128580203
C  C120  1  0.34920000  0.05576000  0.14520000  1.0 -0.128580203
C  C121  1  0.82550000  0.36509000  0.95130000  1.0 -0.0407599003
C  C122  1  0.17450000  0.86509000  0.54870000  1.0 -0.0407599003
C  C123  1  0.17450000  0.63491000  0.04870000  1.0 -0.0407599003
C  C124  1  0.82550000  0.13491000  0.45130000  1.0 -0.0407599003
C  C125  1  0.68680000  0.38591000  0.89350000  1.0 -0.1242997644
C  C126  1  0.31320000  0.88591000  0.60650000  1.0 -0.1242997644
C  C127  1  0.31320000  0.61409000  0.10650000  1.0 -0.1242997644
C  C128  1  0.68680000  0.11409000  0.39350000  1.0 -0.1242997644
C  C129  1  0.88840000  0.38970000  0.85900000  1.0 0.1094434189
C  C130  1  0.11160000  0.88970000  0.64100000  1.0 0.1094434189
C  C131  1  0.11160000  0.61030000  0.14100000  1.0 0.1094434189
C  C132  1  0.88840000  0.11030000  0.35900000  1.0 0.1094434189
C  C133  1  0.85300000  0.84471000  0.70420000  1.0 0.536137311
C  C134  1  0.14700000  0.34471000  0.79580000  1.0 0.536137311
C  C135  1  0.14700000  0.15529000  0.29580000  1.0 0.536137311
C  C136  1  0.85300000  0.65529000  0.20420000  1.0 0.536137311
C  C137  1  0.85820000  0.81147000  0.76510000  1.0 -0.0512643044
C  C138  1  0.14180000  0.31147000  0.73490000  1.0 -0.0512643044
C  C139  1  0.14180000  0.18853000  0.23490000  1.0 -0.0512643044
C  C140  1  0.85820000  0.68853000  0.26510000  1.0 -0.0512643044
C  C141  1  0.88050000  0.82262000  0.84380000  1.0 -0.29922261
C  C142  1  0.11950000  0.32262000  0.65620000  1.0 -0.29922261
C  C143  1  0.11950000  0.17738000  0.15620000  1.0 -0.29922261
C  C144  1  0.88050000  0.67738000  0.34380000  1.0 -0.29922261
C  C145  1  0.88970000  0.79238000  0.90180000  1.0 0.0610582634
C  C146  1  0.11030000  0.29238000  0.59820000  1.0 0.0610582634
C  C147  1  0.11030000  0.20762000  0.09820000  1.0 0.0610582634
C  C148  1  0.88970000  0.70762000  0.40180000  1.0 0.0610582634
C  C149  1  0.87530000  0.74879000  0.87890000  1.0 -0.0794794902
C  C150  1  0.12470000  0.24879000  0.62110000  1.0 -0.0794794902
C  C151  1  0.12470000  0.25121000  0.12110000  1.0 -0.0794794902
C  C152  1  0.87530000  0.75121000  0.37890000  1.0 -0.0794794902
C  C153  1  0.85360000  0.73794000  0.80020000  1.0 -0.2401566373
C  C154  1  0.14640000  0.23794000  0.69980000  1.0 -0.2401566373
C  C155  1  0.14640000  0.26206000  0.19980000  1.0 -0.2401566373
C  C156  1  0.85360000  0.76206000  0.30020000  1.0 -0.2401566373
C  C157  1  0.84500000  0.76839000  0.74290000  1.0 0.0911114959
C  C158  1  0.15500000  0.26839000  0.75710000  1.0 0.0832926063
C  C159  1  0.15500000  0.23161000  0.25710000  1.0 0.0832926063
C  C160  1  0.84500000  0.73161000  0.24290000  1.0 0.0911114959
C  C161  1  0.87710000  0.71495000  0.93670000  1.0 0.4927150069
C  C162  1  0.12290000  0.21495000  0.56330000  1.0 0.4927150069
C  C163  1  0.12290000  0.28505000  0.06330000  1.0 0.4927150069
C  C164  1  0.87710000  0.78505000  0.43670000  1.0 0.4927150069
C  C165  1  0.40810000  0.69990000  0.47610000  1.0 0.0832926063
C  C166  1  0.59190000  0.19990000  0.02390000  1.0 0.0832926063
C  C167  1  0.59190000  0.30010000  0.52390000  1.0 0.0832926063
C  C168  1  0.40810000  0.80010000  0.97610000  1.0 0.0832926063
C  C169  1  0.48240000  0.66800000  0.45180000  1.0 -0.0794794902
C  C170  1  0.51760000  0.16800000  0.04820000  1.0 -0.0794794902
C  C171  1  0.51760000  0.33200000  0.54820000  1.0 -0.0794794902
C  C172  1  0.48240000  0.83200000  0.95180000  1.0 -0.0794794902
C  C173  1  0.43460000  0.62600000  0.45050000  1.0 -0.0030763816
C  C174  1  0.56540000  0.12600000  0.04950000  1.0 -0.0030763816
C  C175  1  0.56540000  0.37400000  0.54950000  1.0 -0.0030763816
C  C176  1  0.43460000  0.87400000  0.95050000  1.0 -0.0030763816
C  C177  1  0.31270000  0.61570000  0.47360000  1.0 -0.0114907685
C  C178  1  0.68730000  0.11570000  0.02640000  1.0 -0.0114907685
C  C179  1  0.68730000  0.38430000  0.52640000  1.0 -0.0114907685
C  C180  1  0.31270000  0.88430000  0.97360000  1.0 -0.0114907685
C  C181  1  0.23870000  0.64760000  0.49800000  1.0 -0.0030763816
C  C182  1  0.76130000  0.14760000  0.00200000  1.0 -0.0030763816
C  C183  1  0.76130000  0.35240000  0.50200000  1.0 -0.0030763816
C  C184  1  0.23870000  0.85240000  0.99800000  1.0 -0.0030763816
C  C185  1  0.28640000  0.68960000  0.49920000  1.0 -0.063605638
C  C186  1  0.71360000  0.18960000  0.00080000  1.0 -0.063605638
C  C187  1  0.71360000  0.31040000  0.50080000  1.0 -0.063605638
C  C188  1  0.28640000  0.81040000  0.99920000  1.0 -0.063605638
C  C189  1  0.42820000  0.81480000  0.44780000  1.0 0.070356878
C  C190  1  0.57180000  0.31480000  0.05220000  1.0 0.070356878
C  C191  1  0.57180000  0.18520000  0.55220000  1.0 0.070356878
C  C192  1  0.42820000  0.68520000  0.94780000  1.0 0.070356878
C  C193  1  0.32380000  0.77950000  0.44040000  1.0 0.0283100263
C  C194  1  0.67620000  0.27950000  0.05960000  1.0 0.0283100263
C  C195  1  0.67620000  0.22050000  0.55960000  1.0 0.0283100263
C  C196  1  0.32380000  0.72050000  0.94040000  1.0 0.0283100263
C  C197  1  0.59950000  0.75580000  0.49710000  1.0 0.1298660671
C  C198  1  0.40050000  0.25580000  0.00290000  1.0 0.1298660671
C  C199  1  0.40050000  0.24420000  0.50290000  1.0 0.1298660671
C  C200  1  0.59950000  0.74420000  0.99710000  1.0 0.1298660671
N  N1  1  0.59060000  0.80180000  0.48090000  1.0 -0.29922261
N  N2  1  0.40940000  0.30180000  0.01910000  1.0 -0.29922261
N  N3  1  0.40940000  0.19820000  0.51910000  1.0 -0.29922261
N  N4  1  0.59060000  0.69820000  0.98090000  1.0 -0.29922261
N  N5  1  0.43380000  0.74230000  0.47040000  1.0 -0.0705903328
N  N6  1  0.56620000  0.24230000  0.02960000  1.0 -0.0705903328
N  N7  1  0.56620000  0.25770000  0.52960000  1.0 -0.0705903328
N  N8  1  0.43380000  0.75770000  0.97040000  1.0 -0.0705903328
N  N9  1  0.32817000  0.39000000  0.01907000  1.0 -0.2654921131
N  N10  1  0.67183000  0.89000000  0.48093000  1.0 -0.2654921131
N  N11  1  0.67183000  0.61000000  0.98093000  1.0 -0.2654921131
N  N12  1  0.32817000  0.11000000  0.51907000  1.0 -0.2654921131
N  N13  1  0.53476000  0.43282000  0.10456000  1.0 0.0049384416
N  N14  1  0.46524000  0.93282000  0.39544000  1.0 0.0049384416
N  N15  1  0.46524000  0.56718000  0.89544000  1.0 0.0049384416
N  N16  1  0.53476000  0.06718000  0.60456000  1.0 0.0049384416
N  N17  1  0.95255000  0.36696000  0.92945000  1.0 -0.2332295717
N  N18  1  0.04745000  0.86696000  0.57055000  1.0 -0.2332295717
N  N19  1  0.04745000  0.63304000  0.07055000  1.0 -0.2332295717
N  N20  1  0.95255000  0.13304000  0.42945000  1.0 -0.2332295717
N  N21  1  0.72777000  0.40224000  0.83477000  1.0 0.0149405722
N  N22  1  0.27223000  0.90224000  0.66523000  1.0 0.0149405722
N  N23  1  0.27223000  0.59776000  0.16523000  1.0 0.0149405722
N  N24  1  0.72777000  0.09776000  0.33477000  1.0 0.0149405722
N  N25  1  0.90690000  0.80625000  0.98060000  1.0 -0.4298745634
N  N26  1  0.09310000  0.30625000  0.51940000  1.0 -0.4298745634
N  N27  1  0.09310000  0.19375000  0.01940000  1.0 -0.4298745634
N  N28  1  0.90690000  0.69375000  0.48060000  1.0 -0.4298745634
N  N29  1  0.59860000  0.80020000  0.48290000  1.0 -0.29922261
N  N30  1  0.40140000  0.30020000  0.01710000  1.0 -0.29922261
N  N31  1  0.40140000  0.19980000  0.51710000  1.0 -0.29922261
N  N32  1  0.59860000  0.69980000  0.98290000  1.0 -0.29922261
N  N33  1  0.42960000  0.74300000  0.47080000  1.0 -0.0705903328
N  N34  1  0.57040000  0.24300000  0.02920000  1.0 -0.0705903328
N  N35  1  0.57040000  0.25700000  0.52920000  1.0 -0.0705903328
N  N36  1  0.42960000  0.75700000  0.97080000  1.0 -0.0705903328
N  N37  1  0.78900000  0.74760000  0.65600000  1.0 -0.4792453328
N  N38  1  0.21100000  0.24760000  0.84400000  1.0 -0.4792453328
N  N39  1  0.21100000  0.25240000  0.34400000  1.0 -0.4792453328
N  N40  1  0.78900000  0.75240000  0.15600000  1.0 -0.4792453328
O  O1  1  0.84678000  0.83011000  0.63758000  1.0 -0.4792453328
O  O2  1  0.15322000  0.33011000  0.86242000  1.0 -0.4792453328
O  O3  1  0.15322000  0.16989000  0.36242000  1.0 -0.4792453328
O  O4  1  0.84678000  0.66989000  0.13758000  1.0 -0.4792453328
O  O5  1  0.85552000  0.88292000  0.72212000  1.0 -0.5443784909
O  O6  1  0.14448000  0.38292000  0.77788000  1.0 -0.5443784909
O  O7  1  0.14448000  0.11708000  0.27788000  1.0 -0.5443784909
O  O8  1  0.85552000  0.61708000  0.22212000  1.0 -0.5443784909
O  O9  1  0.81794000  0.67835000  0.90664000  1.0 -0.5029521005
O  O10  1  0.18206000  0.17835000  0.59336000  1.0 -0.5029521005
O  O11  1  0.18206000  0.32165000  0.09336000  1.0 -0.5029521005
O  O12  1  0.81794000  0.82165000  0.40664000  1.0 -0.5029521005
O  O13  1  0.93051000  0.72294000  0.01441000  1.0 -0.4600045697
O  O14  1  0.06949000  0.22294000  0.48559000  1.0 -0.4600045697
O  O15  1  0.06949000  0.27706000  0.98559000  1.0 -0.4600045697
O  O16  1  0.93051000  0.77706000  0.51441000  1.0 -0.4600045697
