# DDEC6 charges by PACMAN v1.1 (https://github.com/mtap-research/PACMAN-charge/)
data_YOYTUD_FSR_pacman
_symmetry_space_group_name_H-M   'P 1'
_cell_length_a   15.47560000
_cell_length_b   15.47560000
_cell_length_c   15.47560000
_cell_angle_alpha   115.66700000
_cell_angle_beta   115.66700000
_cell_angle_gamma   115.66700000
_symmetry_Int_Tables_number   1
_chemical_formula_structural   FeAg2H8(C2N)8
_chemical_formula_sum   'Fe3 Ag6 H24 C48 N24'
_cell_volume   1942.35765839
_cell_formula_units_Z   3
loop_
 _symmetry_equiv_pos_site_id
 _symmetry_equiv_pos_as_xyz
  1  'x, y, z'
loop_
 _atom_site_type_symbol
 _atom_site_label
 _atom_site_symmetry_multiplicity
 _atom_site_fract_x
 _atom_site_fract_y
 _atom_site_fract_z
 _atom_site_occupancy
 _atom_site_charge
Fe  Fe1  1  0.50000000  0.50000000  0.00000000  1.0 0.5707079235
Fe  Fe2  1  0.50000000  0.00000000  0.50000000  1.0 0.5707079235
Fe  Fe3  1  0.00000000  0.50000000  0.50000000  1.0 0.5707079235
Ag  Ag1  1  0.00000000  0.70273000  0.29727000  1.0 0.0987262193
Ag  Ag2  1  0.70273000  0.29727000  0.00000000  1.0 0.0987262193
Ag  Ag3  1  0.29727000  0.00000000  0.70273000  1.0 0.0987262193
Ag  Ag4  1  0.00000000  0.29727000  0.70273000  1.0 0.0987262193
Ag  Ag5  1  0.29727000  0.70273000  0.00000000  1.0 0.0987262193
Ag  Ag6  1  0.70273000  0.00000000  0.29727000  1.0 0.0987262193
H  H1  1  0.53800000  0.38790000  0.11010000  1.0 0.1275308692
H  H2  1  0.38790000  0.11010000  0.53800000  1.0 0.1275308692
H  H3  1  0.11010000  0.53800000  0.38790000  1.0 0.1275308692
H  H4  1  0.46200000  0.88990000  0.61210000  1.0 0.1275308692
H  H5  1  0.61210000  0.46200000  0.88990000  1.0 0.1275308692
H  H6  1  0.88990000  0.61210000  0.46200000  1.0 0.1275308692
H  H7  1  0.46200000  0.61210000  0.88990000  1.0 0.1275308692
H  H8  1  0.61210000  0.88990000  0.46200000  1.0 0.1275308692
H  H9  1  0.88990000  0.46200000  0.61210000  1.0 0.1275308692
H  H10  1  0.53800000  0.11010000  0.38790000  1.0 0.1275308692
H  H11  1  0.38790000  0.53800000  0.11010000  1.0 0.1275308692
H  H12  1  0.11010000  0.38790000  0.53800000  1.0 0.1275308692
H  H13  1  0.48690000  0.33350000  0.20750000  1.0 0.1381467793
H  H14  1  0.33350000  0.20750000  0.48690000  1.0 0.1381467793
H  H15  1  0.20750000  0.48690000  0.33350000  1.0 0.1381467793
H  H16  1  0.51310000  0.79250000  0.66650000  1.0 0.1381467793
H  H17  1  0.66650000  0.51310000  0.79250000  1.0 0.1381467793
H  H18  1  0.79250000  0.66650000  0.51310000  1.0 0.1381467793
H  H19  1  0.51310000  0.66650000  0.79250000  1.0 0.1381467793
H  H20  1  0.66650000  0.79250000  0.51310000  1.0 0.1381467793
H  H21  1  0.79250000  0.51310000  0.66650000  1.0 0.1381467793
H  H22  1  0.48690000  0.20750000  0.33350000  1.0 0.1381467793
H  H23  1  0.33350000  0.48690000  0.20750000  1.0 0.1381467793
H  H24  1  0.20750000  0.33350000  0.48690000  1.0 0.1381467793
C  C1  1  0.49540000  0.40680000  0.12900000  1.0 0.0761901054
C  C2  1  0.40680000  0.12900000  0.49540000  1.0 0.0761901054
C  C3  1  0.12900000  0.49540000  0.40680000  1.0 0.0761901054
C  C4  1  0.50460000  0.87100000  0.59320000  1.0 0.0761901054
C  C5  1  0.59320000  0.50460000  0.87100000  1.0 0.0761901054
C  C6  1  0.87100000  0.59320000  0.50460000  1.0 0.0761901054
C  C7  1  0.50460000  0.59320000  0.87100000  1.0 0.0761901054
C  C8  1  0.59320000  0.87100000  0.50460000  1.0 0.0761901054
C  C9  1  0.87100000  0.50460000  0.59320000  1.0 0.0761901054
C  C10  1  0.49540000  0.12900000  0.40680000  1.0 0.0761901054
C  C11  1  0.40680000  0.49540000  0.12900000  1.0 0.0761901054
C  C12  1  0.12900000  0.40680000  0.49540000  1.0 0.0761901054
C  C13  1  0.46530000  0.37430000  0.18770000  1.0 -0.1684512868
C  C14  1  0.37430000  0.18770000  0.46530000  1.0 -0.1684512868
C  C15  1  0.18770000  0.46530000  0.37430000  1.0 -0.1684512868
C  C16  1  0.53470000  0.81230000  0.62570000  1.0 -0.1684512868
C  C17  1  0.62570000  0.53470000  0.81230000  1.0 -0.1684512868
C  C18  1  0.81230000  0.62570000  0.53470000  1.0 -0.1684512868
C  C19  1  0.53470000  0.62570000  0.81230000  1.0 -0.1684512868
C  C20  1  0.62570000  0.81230000  0.53470000  1.0 -0.1684512868
C  C21  1  0.81230000  0.53470000  0.62570000  1.0 -0.1684512868
C  C22  1  0.46530000  0.18770000  0.37430000  1.0 -0.1684512868
C  C23  1  0.37430000  0.46530000  0.18770000  1.0 -0.1684512868
C  C24  1  0.18770000  0.37430000  0.46530000  1.0 -0.1684512868
C  C25  1  0.40200000  0.40200000  0.21790000  1.0 0.0595655075
C  C26  1  0.40200000  0.21790000  0.40200000  1.0 0.0595655075
C  C27  1  0.21790000  0.40200000  0.40200000  1.0 0.0595655075
C  C28  1  0.59800000  0.78210000  0.59800000  1.0 0.0595655075
C  C29  1  0.59800000  0.59800000  0.78210000  1.0 0.0595655075
C  C30  1  0.78210000  0.59800000  0.59800000  1.0 0.0595655075
C  C31  1  0.36680000  0.36680000  0.28050000  1.0 0.3582850161
C  C32  1  0.36680000  0.28050000  0.36680000  1.0 0.3582850161
C  C33  1  0.28050000  0.36680000  0.36680000  1.0 0.3582850161
C  C34  1  0.63320000  0.71950000  0.63320000  1.0 0.3582850161
C  C35  1  0.63320000  0.63320000  0.71950000  1.0 0.3582850161
C  C36  1  0.71950000  0.63320000  0.63320000  1.0 0.3582850161
C  C37  1  0.80360000  0.62530000  0.20140000  1.0 -0.0200132031
C  C38  1  0.62530000  0.20140000  0.80360000  1.0 -0.0200132031
C  C39  1  0.20140000  0.80360000  0.62530000  1.0 -0.0200132031
C  C40  1  0.19640000  0.79860000  0.37470000  1.0 -0.0200132031
C  C41  1  0.37470000  0.19640000  0.79860000  1.0 -0.0200132031
C  C42  1  0.79860000  0.37470000  0.19640000  1.0 -0.0200132031
C  C43  1  0.19640000  0.37470000  0.79860000  1.0 -0.0200132031
C  C44  1  0.37470000  0.79860000  0.19640000  1.0 -0.0200132031
C  C45  1  0.79860000  0.19640000  0.37470000  1.0 -0.0200132031
C  C46  1  0.80360000  0.20140000  0.62530000  1.0 -0.0200132031
C  C47  1  0.62530000  0.80360000  0.20140000  1.0 -0.0200132031
C  C48  1  0.20140000  0.62530000  0.80360000  1.0 -0.0200132031
N  N1  1  0.46580000  0.46580000  0.09690000  1.0 -0.1298509252
N  N2  1  0.46580000  0.09690000  0.46580000  1.0 -0.1298509252
N  N3  1  0.09690000  0.46580000  0.46580000  1.0 -0.1298509252
N  N4  1  0.53420000  0.90310000  0.53420000  1.0 -0.1298509252
N  N5  1  0.53420000  0.53420000  0.90310000  1.0 -0.1298509252
N  N6  1  0.90310000  0.53420000  0.53420000  1.0 -0.1298509252
N  N7  1  0.69370000  0.58520000  0.13450000  1.0 -0.2879344261
N  N8  1  0.58520000  0.13450000  0.69370000  1.0 -0.2879344261
N  N9  1  0.13450000  0.69370000  0.58520000  1.0 -0.2879344261
N  N10  1  0.30630000  0.86550000  0.41480000  1.0 -0.2879344261
N  N11  1  0.41480000  0.30630000  0.86550000  1.0 -0.2879344261
N  N12  1  0.86550000  0.41480000  0.30630000  1.0 -0.2879344261
N  N13  1  0.30630000  0.41480000  0.86550000  1.0 -0.2879344261
N  N14  1  0.41480000  0.86550000  0.30630000  1.0 -0.2879344261
N  N15  1  0.86550000  0.30630000  0.41480000  1.0 -0.2879344261
N  N16  1  0.69370000  0.13450000  0.58520000  1.0 -0.2879344261
N  N17  1  0.58520000  0.69370000  0.13450000  1.0 -0.2879344261
N  N18  1  0.13450000  0.58520000  0.69370000  1.0 -0.2879344261
N  N19  1  0.30875000  0.39930000  0.30875000  1.0 -0.403017455
N  N20  1  0.39930000  0.30875000  0.30875000  1.0 -0.403017455
N  N21  1  0.30875000  0.30875000  0.39930000  1.0 -0.403017455
N  N22  1  0.69125000  0.69125000  0.60070000  1.0 -0.403017455
N  N23  1  0.60070000  0.69125000  0.69125000  1.0 -0.403017455
N  N24  1  0.69125000  0.60070000  0.69125000  1.0 -0.403017455
