# DDEC6 charges by PACMAN v1.1 (https://github.com/mtap-research/PACMAN-charge/)
data_YOYTOX01_ASR_pacman
_symmetry_space_group_name_H-M   'P 1'
_cell_length_a   15.49460000
_cell_length_b   15.49460000
_cell_length_c   15.49460000
_cell_angle_alpha   115.80700000
_cell_angle_beta   115.80700000
_cell_angle_gamma   115.80700000
_symmetry_Int_Tables_number   1
_chemical_formula_structural   FeAg2H8(C2N)8
_chemical_formula_sum   'Fe3 Ag6 H24 C48 N24'
_cell_volume   1920.10690888
_cell_formula_units_Z   3
loop_
 _symmetry_equiv_pos_site_id
 _symmetry_equiv_pos_as_xyz
  1  'x, y, z'
loop_
 _atom_site_type_symbol
 _atom_site_label
 _atom_site_symmetry_multiplicity
 _atom_site_fract_x
 _atom_site_fract_y
 _atom_site_fract_z
 _atom_site_occupancy
 _atom_site_charge
Fe  Fe1  1  0.00000000  0.00000000  0.50000000  1.0 0.5570371884
Fe  Fe2  1  0.00000000  0.50000000  0.00000000  1.0 0.5570371884
Fe  Fe3  1  0.50000000  0.00000000  0.00000000  1.0 0.5570371884
Ag  Ag1  1  0.20323000  0.50000000  0.79676000  1.0 0.1047245764
Ag  Ag2  1  0.50000000  0.79676000  0.20323000  1.0 0.1047245764
Ag  Ag3  1  0.79676000  0.20323000  0.50000000  1.0 0.1047245764
Ag  Ag4  1  0.79676000  0.50000000  0.20323000  1.0 0.1047245764
Ag  Ag5  1  0.50000000  0.20323000  0.79676000  1.0 0.1056516879
Ag  Ag6  1  0.20323000  0.79676000  0.50000000  1.0 0.1047245764
H  H1  1  0.39400000  0.96590000  0.11500000  1.0 0.1248410382
H  H2  1  0.96590000  0.11500000  0.39400000  1.0 0.1248410382
H  H3  1  0.11500000  0.39400000  0.96590000  1.0 0.1248410382
H  H4  1  0.03410000  0.60600000  0.88500000  1.0 0.1248410382
H  H5  1  0.88500000  0.03410000  0.60600000  1.0 0.1248410382
H  H6  1  0.60600000  0.88500000  0.03410000  1.0 0.1248410382
H  H7  1  0.60600000  0.03410000  0.88500000  1.0 0.1248410382
H  H8  1  0.03410000  0.88500000  0.60600000  1.0 0.1248410382
H  H9  1  0.88500000  0.60600000  0.03410000  1.0 0.1248410382
H  H10  1  0.96590000  0.39400000  0.11500000  1.0 0.1248410382
H  H11  1  0.11500000  0.96590000  0.39400000  1.0 0.1248410382
H  H12  1  0.39400000  0.11500000  0.96590000  1.0 0.1248410382
H  H13  1  0.29590000  0.01750000  0.17080000  1.0 0.139497151
H  H14  1  0.01750000  0.17080000  0.29590000  1.0 0.139497151
H  H15  1  0.17080000  0.29590000  0.01750000  1.0 0.139497151
H  H16  1  0.98250000  0.70410000  0.82920000  1.0 0.139497151
H  H17  1  0.82920000  0.98250000  0.70410000  1.0 0.139497151
H  H18  1  0.70410000  0.82920000  0.98250000  1.0 0.139497151
H  H19  1  0.70410000  0.98250000  0.82920000  1.0 0.139497151
H  H20  1  0.98250000  0.82920000  0.70410000  1.0 0.139497151
H  H21  1  0.82920000  0.70410000  0.98250000  1.0 0.139497151
H  H22  1  0.01750000  0.29590000  0.17080000  1.0 0.139497151
H  H23  1  0.17080000  0.01750000  0.29590000  1.0 0.139497151
H  H24  1  0.29590000  0.17080000  0.01750000  1.0 0.139497151
C  C1  1  0.12716000  0.30428000  0.70306000  1.0 -0.0269624517
C  C2  1  0.30428000  0.70306000  0.12716000  1.0 -0.0269624517
C  C3  1  0.70306000  0.12716000  0.30428000  1.0 -0.0269624517
C  C4  1  0.69572000  0.87284000  0.29694000  1.0 -0.0269624517
C  C5  1  0.29694000  0.69572000  0.87284000  1.0 -0.0269624517
C  C6  1  0.87284000  0.29694000  0.69572000  1.0 -0.0269624517
C  C7  1  0.87284000  0.69572000  0.29694000  1.0 -0.0269624517
C  C8  1  0.69572000  0.29694000  0.87284000  1.0 -0.0269624517
C  C9  1  0.29694000  0.87284000  0.69572000  1.0 -0.0269624517
C  C10  1  0.30428000  0.12716000  0.70306000  1.0 -0.0269624517
C  C11  1  0.70306000  0.30428000  0.12716000  1.0 -0.0269624517
C  C12  1  0.12716000  0.70306000  0.30428000  1.0 -0.0269624517
C  C13  1  0.37473000  0.00839000  0.09628000  1.0 0.0838003395
C  C14  1  0.00839000  0.09628000  0.37473000  1.0 0.0838003395
C  C15  1  0.09628000  0.37473000  0.00839000  1.0 0.0838003395
C  C16  1  0.99161000  0.62527000  0.90372000  1.0 0.0838003395
C  C17  1  0.90372000  0.99161000  0.62527000  1.0 0.0838003395
C  C18  1  0.62527000  0.90372000  0.99161000  1.0 0.0838003395
C  C19  1  0.62527000  0.99161000  0.90372000  1.0 0.0838003395
C  C20  1  0.99161000  0.90372000  0.62527000  1.0 0.0838003395
C  C21  1  0.90372000  0.62527000  0.99161000  1.0 0.0838003395
C  C22  1  0.00839000  0.37473000  0.09628000  1.0 0.0838003395
C  C23  1  0.09628000  0.00839000  0.37473000  1.0 0.0838003395
C  C24  1  0.37473000  0.09628000  0.00839000  1.0 0.0838003395
C  C25  1  0.31570000  0.03894000  0.13016000  1.0 -0.171740178
C  C26  1  0.03894000  0.13016000  0.31570000  1.0 -0.171740178
C  C27  1  0.13016000  0.31570000  0.03894000  1.0 -0.171740178
C  C28  1  0.96106000  0.68430000  0.86984000  1.0 -0.171740178
C  C29  1  0.86984000  0.96106000  0.68430000  1.0 -0.171740178
C  C30  1  0.68430000  0.86984000  0.96106000  1.0 -0.171740178
C  C31  1  0.68430000  0.96106000  0.86984000  1.0 -0.171740178
C  C32  1  0.96106000  0.86984000  0.68430000  1.0 -0.171740178
C  C33  1  0.86984000  0.68430000  0.96106000  1.0 -0.171740178
C  C34  1  0.03894000  0.31570000  0.13016000  1.0 -0.171740178
C  C35  1  0.13016000  0.03894000  0.31570000  1.0 -0.171740178
C  C36  1  0.31570000  0.13016000  0.03894000  1.0 -0.171740178
C  C37  1  0.28652000  0.10229000  0.10229000  1.0 0.0613581489
C  C38  1  0.10229000  0.10229000  0.28652000  1.0 0.0613581489
C  C39  1  0.10229000  0.28652000  0.10229000  1.0 0.0613581489
C  C40  1  0.89771000  0.71348000  0.89771000  1.0 0.0613581489
C  C41  1  0.89771000  0.89771000  0.71348000  1.0 0.0613581489
C  C42  1  0.71348000  0.89771000  0.89771000  1.0 0.0613581489
C  C43  1  0.22313000  0.13728000  0.13728000  1.0 0.3592581787
C  C44  1  0.13728000  0.13728000  0.22313000  1.0 0.3592581787
C  C45  1  0.13728000  0.22313000  0.13728000  1.0 0.3592581787
C  C46  1  0.86271000  0.77687000  0.86272000  1.0 0.3592581787
C  C47  1  0.86271000  0.86271000  0.77687000  1.0 0.3592581787
C  C48  1  0.77687000  0.86271000  0.86272000  1.0 0.3592581787
N  N1  1  0.08630000  0.19382000  0.63628000  1.0 -0.2828361851
N  N2  1  0.19382000  0.63628000  0.08630000  1.0 -0.2828361851
N  N3  1  0.63628000  0.08630000  0.19382000  1.0 -0.2828361851
N  N4  1  0.80618000  0.91370000  0.36372000  1.0 -0.2828361851
N  N5  1  0.36372000  0.80618000  0.91370000  1.0 -0.2828361851
N  N6  1  0.91370000  0.36372000  0.80618000  1.0 -0.2828361851
N  N7  1  0.91370000  0.80618000  0.36372000  1.0 -0.2828361851
N  N8  1  0.80618000  0.36372000  0.91370000  1.0 -0.2828361851
N  N9  1  0.36372000  0.91370000  0.80618000  1.0 -0.2828361851
N  N10  1  0.19382000  0.08630000  0.63628000  1.0 -0.2828361851
N  N11  1  0.63628000  0.19382000  0.08630000  1.0 -0.2828361851
N  N12  1  0.08630000  0.63628000  0.19382000  1.0 -0.2828361851
N  N13  1  0.40559000  0.03735000  0.03735000  1.0 -0.1329705454
N  N14  1  0.03736000  0.03736000  0.40559000  1.0 -0.1329705454
N  N15  1  0.03735000  0.40559000  0.03735000  1.0 -0.1329705454
N  N16  1  0.96264000  0.59441000  0.96264000  1.0 -0.1329705454
N  N17  1  0.96264000  0.96264000  0.59441000  1.0 -0.1329705454
N  N18  1  0.59441000  0.96264000  0.96264000  1.0 -0.1329705454
N  N19  1  0.19595000  0.10519000  0.19595000  1.0 -0.4042428992
N  N20  1  0.10519000  0.19595000  0.19595000  1.0 -0.4042428992
N  N21  1  0.19595000  0.19595000  0.10519000  1.0 -0.4042428992
N  N22  1  0.89481000  0.80404000  0.80405000  1.0 -0.4042428992
N  N23  1  0.80404000  0.89481000  0.80405000  1.0 -0.4042428992
N  N24  1  0.80404000  0.80404000  0.89481000  1.0 -0.4042428992
