# DDEC6 charges by PACMAN v1.1 (https://github.com/mtap-research/PACMAN-charge/)
data_YOYVAL_ASR_pacman
_symmetry_space_group_name_H-M   'P 1'
_cell_length_a   15.88910000
_cell_length_b   15.88910000
_cell_length_c   15.88910000
_cell_angle_alpha   115.54500000
_cell_angle_beta   115.54500000
_cell_angle_gamma   115.54500000
_symmetry_Int_Tables_number   1
_chemical_formula_structural   FeAg2H8(C2N)8
_chemical_formula_sum   'Fe3 Ag6 H24 C48 N24'
_cell_volume   2129.36835271
_cell_formula_units_Z   3
loop_
 _symmetry_equiv_pos_site_id
 _symmetry_equiv_pos_as_xyz
  1  'x, y, z'
loop_
 _atom_site_type_symbol
 _atom_site_label
 _atom_site_symmetry_multiplicity
 _atom_site_fract_x
 _atom_site_fract_y
 _atom_site_fract_z
 _atom_site_occupancy
 _atom_site_charge
Fe  Fe1  1  0.50000000  0.50000000  0.00000000  1.0 0.7683287086
Fe  Fe2  1  0.50000000  0.00000000  0.50000000  1.0 0.7683287086
Fe  Fe3  1  0.00000000  0.50000000  0.50000000  1.0 0.7683287086
Ag  Ag1  1  0.29815000  0.00000000  0.70185000  1.0 0.149528215
Ag  Ag2  1  0.00000000  0.70185000  0.29815000  1.0 0.149528215
Ag  Ag3  1  0.70185000  0.29815000  0.00000000  1.0 0.149528215
Ag  Ag4  1  0.70185000  0.00000000  0.29815000  1.0 0.149528215
Ag  Ag5  1  0.00000000  0.29815000  0.70185000  1.0 0.149528215
Ag  Ag6  1  0.29815000  0.70185000  0.00000000  1.0 0.149528215
H  H1  1  0.52980000  0.38550000  0.11380000  1.0 0.1183841896
H  H2  1  0.38550000  0.11380000  0.52980000  1.0 0.1183841896
H  H3  1  0.11380000  0.52980000  0.38550000  1.0 0.1183841896
H  H4  1  0.61450000  0.47020000  0.88620000  1.0 0.1183841896
H  H5  1  0.88620000  0.61450000  0.47020000  1.0 0.1183841896
H  H6  1  0.47020000  0.88620000  0.61450000  1.0 0.1183841896
H  H7  1  0.47020000  0.61450000  0.88620000  1.0 0.1183841896
H  H8  1  0.61450000  0.88620000  0.47020000  1.0 0.1183841896
H  H9  1  0.88620000  0.47020000  0.61450000  1.0 0.1183841896
H  H10  1  0.38550000  0.52980000  0.11380000  1.0 0.1183841896
H  H11  1  0.11380000  0.38550000  0.52980000  1.0 0.1183841896
H  H12  1  0.52980000  0.11380000  0.38550000  1.0 0.1183841896
H  H13  1  0.48360000  0.33490000  0.21240000  1.0 0.1373008263
H  H14  1  0.33490000  0.21240000  0.48360000  1.0 0.1373008263
H  H15  1  0.21240000  0.48360000  0.33490000  1.0 0.1373008263
H  H16  1  0.66510000  0.51640000  0.78760000  1.0 0.1373008263
H  H17  1  0.78760000  0.66510000  0.51640000  1.0 0.1373008263
H  H18  1  0.51640000  0.78760000  0.66510000  1.0 0.1373008263
H  H19  1  0.51640000  0.66510000  0.78760000  1.0 0.1373008263
H  H20  1  0.66510000  0.78760000  0.51640000  1.0 0.1373008263
H  H21  1  0.78760000  0.51640000  0.66510000  1.0 0.1373008263
H  H22  1  0.33490000  0.48360000  0.21240000  1.0 0.1373008263
H  H23  1  0.21240000  0.33490000  0.48360000  1.0 0.1373008263
H  H24  1  0.48360000  0.21240000  0.33490000  1.0 0.1373008263
C  C1  1  0.49000000  0.40540000  0.13400000  1.0 0.0923072544
C  C2  1  0.40540000  0.13400000  0.49000000  1.0 0.0923072544
C  C3  1  0.13400000  0.49000000  0.40540000  1.0 0.0923072544
C  C4  1  0.59460000  0.51000000  0.86600000  1.0 0.0923072544
C  C5  1  0.86600000  0.59460000  0.51000000  1.0 0.0923072544
C  C6  1  0.51000000  0.86600000  0.59460000  1.0 0.0923072544
C  C7  1  0.51000000  0.59460000  0.86600000  1.0 0.0923072544
C  C8  1  0.59460000  0.86600000  0.51000000  1.0 0.0923072544
C  C9  1  0.86600000  0.51000000  0.59460000  1.0 0.0923072544
C  C10  1  0.40540000  0.49000000  0.13400000  1.0 0.0923072544
C  C11  1  0.13400000  0.40540000  0.49000000  1.0 0.0923072544
C  C12  1  0.49000000  0.13400000  0.40540000  1.0 0.0923072544
C  C13  1  0.46170000  0.37400000  0.19280000  1.0 -0.1687527401
C  C14  1  0.37400000  0.19280000  0.46170000  1.0 -0.1687527401
C  C15  1  0.19280000  0.46170000  0.37400000  1.0 -0.1687527401
C  C16  1  0.62600000  0.53830000  0.80720000  1.0 -0.1687527401
C  C17  1  0.80720000  0.62600000  0.53830000  1.0 -0.1687527401
C  C18  1  0.53830000  0.80720000  0.62600000  1.0 -0.1687527401
C  C19  1  0.53830000  0.62600000  0.80720000  1.0 -0.1687527401
C  C20  1  0.62600000  0.80720000  0.53830000  1.0 -0.1687527401
C  C21  1  0.80720000  0.53830000  0.62600000  1.0 -0.1687527401
C  C22  1  0.37400000  0.46170000  0.19280000  1.0 -0.1687527401
C  C23  1  0.19280000  0.37400000  0.46170000  1.0 -0.1687527401
C  C24  1  0.46170000  0.19280000  0.37400000  1.0 -0.1687527401
C  C25  1  0.40055000  0.40055000  0.22260000  1.0 0.0559107137
C  C26  1  0.40055000  0.22260000  0.40055000  1.0 0.0559107137
C  C27  1  0.22260000  0.40055000  0.40055000  1.0 0.0559107137
C  C28  1  0.59945000  0.59945000  0.77740000  1.0 0.0559107137
C  C29  1  0.77740000  0.59945000  0.59945000  1.0 0.0559107137
C  C30  1  0.59945000  0.77740000  0.59945000  1.0 0.0559107137
C  C31  1  0.36915000  0.36915000  0.28450000  1.0 0.3475142391
C  C32  1  0.36915000  0.28450000  0.36915000  1.0 0.3475142391
C  C33  1  0.28450000  0.36915000  0.36915000  1.0 0.3475142391
C  C34  1  0.63085000  0.63085000  0.71550000  1.0 0.3475142391
C  C35  1  0.71550000  0.63085000  0.63085000  1.0 0.3475142391
C  C36  1  0.63085000  0.71550000  0.63085000  1.0 0.3475142391
C  C37  1  0.37760000  0.19180000  0.79880000  1.0 -0.006955854
C  C38  1  0.19180000  0.79880000  0.37760000  1.0 -0.006955854
C  C39  1  0.79880000  0.37760000  0.19180000  1.0 -0.006955854
C  C40  1  0.80820000  0.62240000  0.20120000  1.0 -0.006955854
C  C41  1  0.20120000  0.80820000  0.62240000  1.0 -0.006955854
C  C42  1  0.62240000  0.20120000  0.80820000  1.0 -0.006955854
C  C43  1  0.62240000  0.80820000  0.20120000  1.0 -0.006955854
C  C44  1  0.80820000  0.20120000  0.62240000  1.0 -0.006955854
C  C45  1  0.20120000  0.62240000  0.80820000  1.0 -0.006955854
C  C46  1  0.19180000  0.37760000  0.79880000  1.0 -0.006955854
C  C47  1  0.79880000  0.19180000  0.37760000  1.0 -0.006955854
C  C48  1  0.37760000  0.79880000  0.19180000  1.0 -0.006955854
N  N1  1  0.46285000  0.46285000  0.10490000  1.0 -0.2069505506
N  N2  1  0.46285000  0.10490000  0.46285000  1.0 -0.2069505506
N  N3  1  0.10490000  0.46285000  0.46285000  1.0 -0.2069505506
N  N4  1  0.53715000  0.53715000  0.89510000  1.0 -0.2069505506
N  N5  1  0.89510000  0.53715000  0.53715000  1.0 -0.2069505506
N  N6  1  0.53715000  0.89510000  0.53715000  1.0 -0.2069505506
N  N7  1  0.41520000  0.29690000  0.85890000  1.0 -0.3384724039
N  N8  1  0.29690000  0.85890000  0.41520000  1.0 -0.3384724039
N  N9  1  0.85890000  0.41520000  0.29690000  1.0 -0.3384724039
N  N10  1  0.70310000  0.58480000  0.14110000  1.0 -0.3384724039
N  N11  1  0.14110000  0.70310000  0.58480000  1.0 -0.3384724039
N  N12  1  0.58480000  0.14110000  0.70310000  1.0 -0.3384724039
N  N13  1  0.58480000  0.70310000  0.14110000  1.0 -0.3384724039
N  N14  1  0.70310000  0.14110000  0.58480000  1.0 -0.3384724039
N  N15  1  0.14110000  0.58480000  0.70310000  1.0 -0.3384724039
N  N16  1  0.29690000  0.41520000  0.85890000  1.0 -0.3384724039
N  N17  1  0.85890000  0.29690000  0.41520000  1.0 -0.3384724039
N  N18  1  0.41520000  0.85890000  0.29690000  1.0 -0.3384724039
N  N19  1  0.39776000  0.30982000  0.30982000  1.0 -0.3977895159
N  N20  1  0.30982000  0.30982000  0.39776000  1.0 -0.3977895159
N  N21  1  0.30982000  0.39776000  0.30982000  1.0 -0.3977895159
N  N22  1  0.69018000  0.60224000  0.69018000  1.0 -0.3977895159
N  N23  1  0.69018000  0.69018000  0.60224000  1.0 -0.3977895159
N  N24  1  0.60224000  0.69018000  0.69018000  1.0 -0.3977895159
