# DDEC6 charges by PACMAN v1.1 (https://github.com/mtap-research/PACMAN-charge/)
data_YOYVEP01_ASR_pacman
_symmetry_space_group_name_H-M   'P 1'
_cell_length_a   15.86930000
_cell_length_b   15.86930000
_cell_length_c   15.86930000
_cell_angle_alpha   115.89800000
_cell_angle_beta   115.89800000
_cell_angle_gamma   115.89800000
_symmetry_Int_Tables_number   1
_chemical_formula_structural   FeH8Au2(C2N)8
_chemical_formula_sum   'Fe3 H24 Au6 C48 N24'
_cell_volume   2041.90690111
_cell_formula_units_Z   3
loop_
 _symmetry_equiv_pos_site_id
 _symmetry_equiv_pos_as_xyz
  1  'x, y, z'
loop_
 _atom_site_type_symbol
 _atom_site_label
 _atom_site_symmetry_multiplicity
 _atom_site_fract_x
 _atom_site_fract_y
 _atom_site_fract_z
 _atom_site_occupancy
 _atom_site_charge
Fe  Fe1  1  0.50000000  0.50000000  0.00000000  1.0 0.7682555839
Fe  Fe2  1  0.50000000  0.00000000  0.50000000  1.0 0.7682555839
Fe  Fe3  1  0.00000000  0.50000000  0.50000000  1.0 0.7682555839
H  H1  1  0.47940000  0.62390000  0.89580000  1.0 0.1181261893
H  H2  1  0.62390000  0.89580000  0.47940000  1.0 0.1181261893
H  H3  1  0.89580000  0.47940000  0.62390000  1.0 0.1181261893
H  H4  1  0.37610000  0.52060000  0.10420000  1.0 0.1181261893
H  H5  1  0.10420000  0.37610000  0.52060000  1.0 0.1181261893
H  H6  1  0.52060000  0.10420000  0.37610000  1.0 0.1181261893
H  H7  1  0.52060000  0.37610000  0.10420000  1.0 0.1181261893
H  H8  1  0.37610000  0.10420000  0.52060000  1.0 0.1181261893
H  H9  1  0.10420000  0.52060000  0.37610000  1.0 0.1181261893
H  H10  1  0.62390000  0.47940000  0.89580000  1.0 0.1181261893
H  H11  1  0.89580000  0.62390000  0.47940000  1.0 0.1181261893
H  H12  1  0.47940000  0.89580000  0.62390000  1.0 0.1181261893
H  H13  1  0.52690000  0.67520000  0.79700000  1.0 0.1405078843
H  H14  1  0.67520000  0.79700000  0.52690000  1.0 0.1405078843
H  H15  1  0.79700000  0.52690000  0.67520000  1.0 0.1405078843
H  H16  1  0.32480000  0.47310000  0.20300000  1.0 0.1405078843
H  H17  1  0.20300000  0.32480000  0.47310000  1.0 0.1405078843
H  H18  1  0.47310000  0.20300000  0.32480000  1.0 0.1405078843
H  H19  1  0.47310000  0.32480000  0.20300000  1.0 0.1405078843
H  H20  1  0.32480000  0.20300000  0.47310000  1.0 0.1405078843
H  H21  1  0.20300000  0.47310000  0.32480000  1.0 0.1405078843
H  H22  1  0.67520000  0.52690000  0.79700000  1.0 0.1405078843
H  H23  1  0.79700000  0.67520000  0.52690000  1.0 0.1405078843
H  H24  1  0.52690000  0.79700000  0.67520000  1.0 0.1405078843
Au  Au1  1  0.70658000  0.00000000  0.29342000  1.0 -0.0154827663
Au  Au2  1  0.00000000  0.29342000  0.70658000  1.0 -0.0154827663
Au  Au3  1  0.29342000  0.70658000  0.00000000  1.0 -0.0154827663
Au  Au4  1  0.29342000  0.00000000  0.70658000  1.0 -0.0154827663
Au  Au5  1  0.00000000  0.70658000  0.29342000  1.0 -0.0154827663
Au  Au6  1  0.70658000  0.29342000  0.00000000  1.0 -0.0142298183
C  C1  1  0.51940000  0.60420000  0.87580000  1.0 0.0972280111
C  C2  1  0.60420000  0.87580000  0.51940000  1.0 0.0972280111
C  C3  1  0.87580000  0.51940000  0.60420000  1.0 0.0972280111
C  C4  1  0.39580000  0.48060000  0.12420000  1.0 0.0972280111
C  C5  1  0.12420000  0.39580000  0.48060000  1.0 0.0972280111
C  C6  1  0.48060000  0.12420000  0.39580000  1.0 0.0972280111
C  C7  1  0.48060000  0.39580000  0.12420000  1.0 0.0972280111
C  C8  1  0.39580000  0.12420000  0.48060000  1.0 0.0972280111
C  C9  1  0.12420000  0.48060000  0.39580000  1.0 0.0972280111
C  C10  1  0.60420000  0.51940000  0.87580000  1.0 0.0972280111
C  C11  1  0.87580000  0.60420000  0.51940000  1.0 0.0972280111
C  C12  1  0.51940000  0.87580000  0.60420000  1.0 0.0972280111
C  C13  1  0.54760000  0.63530000  0.81620000  1.0 -0.1615879176
C  C14  1  0.63530000  0.81620000  0.54760000  1.0 -0.1615879176
C  C15  1  0.81620000  0.54760000  0.63530000  1.0 -0.1615879176
C  C16  1  0.36470000  0.45240000  0.18380000  1.0 -0.1615879176
C  C17  1  0.18380000  0.36470000  0.45240000  1.0 -0.1615879176
C  C18  1  0.45240000  0.18380000  0.36470000  1.0 -0.1615879176
C  C19  1  0.45240000  0.36470000  0.18380000  1.0 -0.1615879176
C  C20  1  0.36470000  0.18380000  0.45240000  1.0 -0.1615879176
C  C21  1  0.18380000  0.45240000  0.36470000  1.0 -0.1615879176
C  C22  1  0.63530000  0.54760000  0.81620000  1.0 -0.1615879176
C  C23  1  0.81620000  0.63530000  0.54760000  1.0 -0.1615879176
C  C24  1  0.54760000  0.81620000  0.63530000  1.0 -0.1615879176
C  C25  1  0.60630000  0.60630000  0.78590000  1.0 0.06301447
C  C26  1  0.60630000  0.78590000  0.60630000  1.0 0.06301447
C  C27  1  0.78590000  0.60630000  0.60630000  1.0 0.06301447
C  C28  1  0.39370000  0.39370000  0.21410000  1.0 0.06301447
C  C29  1  0.21410000  0.39370000  0.39370000  1.0 0.06301447
C  C30  1  0.39370000  0.21410000  0.39370000  1.0 0.06301447
C  C31  1  0.63710000  0.63710000  0.72130000  1.0 0.3695791587
C  C32  1  0.63710000  0.72130000  0.63710000  1.0 0.3695791587
C  C33  1  0.72130000  0.63710000  0.63710000  1.0 0.3695791587
C  C34  1  0.36290000  0.36290000  0.27870000  1.0 0.3695791587
C  C35  1  0.27870000  0.36290000  0.36290000  1.0 0.3695791587
C  C36  1  0.36290000  0.27870000  0.36290000  1.0 0.3695791587
C  C37  1  0.63100000  0.81490000  0.20750000  1.0 0.0547668673
C  C38  1  0.81490000  0.20750000  0.63100000  1.0 0.0547668673
C  C39  1  0.20750000  0.63100000  0.81490000  1.0 0.0547668673
C  C40  1  0.18510000  0.36900000  0.79250000  1.0 0.0547668673
C  C41  1  0.79250000  0.18510000  0.36900000  1.0 0.0547668673
C  C42  1  0.36900000  0.79250000  0.18510000  1.0 0.0547668673
C  C43  1  0.36900000  0.18510000  0.79250000  1.0 0.0547668673
C  C44  1  0.18510000  0.79250000  0.36900000  1.0 0.0547668673
C  C45  1  0.79250000  0.36900000  0.18510000  1.0 0.0547668673
C  C46  1  0.81490000  0.63100000  0.20750000  1.0 0.0547668673
C  C47  1  0.20750000  0.81490000  0.63100000  1.0 0.0547668673
C  C48  1  0.63100000  0.20750000  0.81490000  1.0 0.0547668673
N  N1  1  0.54735000  0.54735000  0.90590000  1.0 -0.2062969432
N  N2  1  0.54735000  0.90590000  0.54735000  1.0 -0.2062969432
N  N3  1  0.90590000  0.54735000  0.54735000  1.0 -0.2062969432
N  N4  1  0.45265000  0.45265000  0.09410000  1.0 -0.2062969432
N  N5  1  0.09410000  0.45265000  0.45265000  1.0 -0.2062969432
N  N6  1  0.45265000  0.09410000  0.45265000  1.0 -0.2062969432
N  N7  1  0.59330000  0.71010000  0.15290000  1.0 -0.3457739513
N  N8  1  0.71010000  0.15290000  0.59330000  1.0 -0.3443704322
N  N9  1  0.15290000  0.59330000  0.71010000  1.0 -0.3457739513
N  N10  1  0.28990000  0.40670000  0.84710000  1.0 -0.3457739513
N  N11  1  0.84710000  0.28990000  0.40670000  1.0 -0.3457739513
N  N12  1  0.40670000  0.84710000  0.28990000  1.0 -0.3443704322
N  N13  1  0.40670000  0.28990000  0.84710000  1.0 -0.3443704322
N  N14  1  0.28990000  0.84710000  0.40670000  1.0 -0.3457739513
N  N15  1  0.84710000  0.40670000  0.28990000  1.0 -0.3443704322
N  N16  1  0.71010000  0.59330000  0.15290000  1.0 -0.3457739513
N  N17  1  0.15290000  0.71010000  0.59330000  1.0 -0.3457739513
N  N18  1  0.59330000  0.15290000  0.71010000  1.0 -0.3443704322
N  N19  1  0.60742000  0.69569000  0.69569000  1.0 -0.4028543011
N  N20  1  0.69569000  0.69569000  0.60742000  1.0 -0.4028543011
N  N21  1  0.69569000  0.60742000  0.69569000  1.0 -0.4028543011
N  N22  1  0.30431000  0.39258000  0.30431000  1.0 -0.4028543011
N  N23  1  0.30431000  0.30431000  0.39258000  1.0 -0.4028543011
N  N24  1  0.39258000  0.30431000  0.30431000  1.0 -0.4028543011
