# DDEC6 charges by PACMAN v1.1 (https://github.com/mtap-research/PACMAN-charge/)
data_YOYVOZ01_ASR_pacman
_symmetry_space_group_name_H-M   'P 1'
_cell_length_a   15.82820000
_cell_length_b   15.82820000
_cell_length_c   15.82820000
_cell_angle_alpha   115.73800000
_cell_angle_beta   115.73800000
_cell_angle_gamma   115.73800000
_symmetry_Int_Tables_number   1
_chemical_formula_structural   FeH8Au2(C2N)8
_chemical_formula_sum   'Fe3 H24 Au6 C48 N24'
_cell_volume   2062.35063403
_cell_formula_units_Z   3
loop_
 _symmetry_equiv_pos_site_id
 _symmetry_equiv_pos_as_xyz
  1  'x, y, z'
loop_
 _atom_site_type_symbol
 _atom_site_label
 _atom_site_symmetry_multiplicity
 _atom_site_fract_x
 _atom_site_fract_y
 _atom_site_fract_z
 _atom_site_occupancy
 _atom_site_charge
Fe  Fe1  1  0.00000000  0.50000000  0.50000000  1.0 0.7669796966
Fe  Fe2  1  0.50000000  0.50000000  0.00000000  1.0 0.7669796966
Fe  Fe3  1  0.50000000  0.00000000  0.50000000  1.0 0.7669796966
H  H1  1  0.11378000  0.38500000  0.52950000  1.0 0.1225651376
H  H2  1  0.38500000  0.52950000  0.11378000  1.0 0.1225651376
H  H3  1  0.52950000  0.11378000  0.38500000  1.0 0.1225651376
H  H4  1  0.61500000  0.88622000  0.47050000  1.0 0.1225651376
H  H5  1  0.47050000  0.61500000  0.88622000  1.0 0.1225651376
H  H6  1  0.88622000  0.47050000  0.61500000  1.0 0.1225651376
H  H7  1  0.88622000  0.61500000  0.47050000  1.0 0.1225651376
H  H8  1  0.61500000  0.47050000  0.88622000  1.0 0.1225651376
H  H9  1  0.47050000  0.88622000  0.61500000  1.0 0.1225651376
H  H10  1  0.38500000  0.11378000  0.52950000  1.0 0.1225651376
H  H11  1  0.52950000  0.38500000  0.11378000  1.0 0.1225651376
H  H12  1  0.11378000  0.52950000  0.38500000  1.0 0.1225651376
H  H13  1  0.21538000  0.33810000  0.48740000  1.0 0.1404342972
H  H14  1  0.33810000  0.48740000  0.21538000  1.0 0.1404342972
H  H15  1  0.48740000  0.21538000  0.33810000  1.0 0.1404342972
H  H16  1  0.66190000  0.78462000  0.51260000  1.0 0.1404342972
H  H17  1  0.51260000  0.66190000  0.78462000  1.0 0.1404342972
H  H18  1  0.78462000  0.51260000  0.66190000  1.0 0.1404342972
H  H19  1  0.78462000  0.66190000  0.51260000  1.0 0.1404342972
H  H20  1  0.66190000  0.51260000  0.78462000  1.0 0.1404342972
H  H21  1  0.51260000  0.78462000  0.66190000  1.0 0.1404342972
H  H22  1  0.33810000  0.21538000  0.48740000  1.0 0.1404342972
H  H23  1  0.48740000  0.33810000  0.21538000  1.0 0.1404342972
H  H24  1  0.21538000  0.48740000  0.33810000  1.0 0.1404342972
Au  Au1  1  0.29172000  0.00000000  0.70828000  1.0 -0.0166690501
Au  Au2  1  0.00000000  0.70828000  0.29172000  1.0 -0.0166690501
Au  Au3  1  0.70828000  0.29172000  0.00000000  1.0 -0.0166690501
Au  Au4  1  0.70828000  0.00000000  0.29172000  1.0 -0.0166690501
Au  Au5  1  0.00000000  0.29172000  0.70828000  1.0 -0.0166690501
Au  Au6  1  0.29172000  0.70828000  0.00000000  1.0 -0.0166690501
C  C1  1  0.13308000  0.40440000  0.48870000  1.0 0.0816738479
C  C2  1  0.40440000  0.48870000  0.13308000  1.0 0.0816738479
C  C3  1  0.48870000  0.13308000  0.40440000  1.0 0.0816738479
C  C4  1  0.59560000  0.86692000  0.51130000  1.0 0.0816738479
C  C5  1  0.51130000  0.59560000  0.86692000  1.0 0.0816738479
C  C6  1  0.86692000  0.51130000  0.59560000  1.0 0.0816738479
C  C7  1  0.86692000  0.59560000  0.51130000  1.0 0.0816738479
C  C8  1  0.59560000  0.51130000  0.86692000  1.0 0.0816738479
C  C9  1  0.51130000  0.86692000  0.59560000  1.0 0.0816738479
C  C10  1  0.40440000  0.13308000  0.48870000  1.0 0.0816738479
C  C11  1  0.48870000  0.40440000  0.13308000  1.0 0.0816738479
C  C12  1  0.13308000  0.48870000  0.40440000  1.0 0.0816738479
C  C13  1  0.19298000  0.37470000  0.46300000  1.0 -0.1582983113
C  C14  1  0.37470000  0.46300000  0.19298000  1.0 -0.1582983113
C  C15  1  0.46300000  0.19298000  0.37470000  1.0 -0.1582983113
C  C16  1  0.62530000  0.80702000  0.53700000  1.0 -0.1582983113
C  C17  1  0.53700000  0.62530000  0.80702000  1.0 -0.1582983113
C  C18  1  0.80702000  0.53700000  0.62530000  1.0 -0.1582983113
C  C19  1  0.80702000  0.62530000  0.53700000  1.0 -0.1582983113
C  C20  1  0.62530000  0.53700000  0.80702000  1.0 -0.1582983113
C  C21  1  0.53700000  0.80702000  0.62530000  1.0 -0.1582983113
C  C22  1  0.37470000  0.19298000  0.46300000  1.0 -0.1582983113
C  C23  1  0.46300000  0.37470000  0.19298000  1.0 -0.1582983113
C  C24  1  0.19298000  0.46300000  0.37470000  1.0 -0.1582983113
C  C25  1  0.21998000  0.40010000  0.40010000  1.0 0.0630139507
C  C26  1  0.40010000  0.40010000  0.21998000  1.0 0.0630139507
C  C27  1  0.40010000  0.21998000  0.40010000  1.0 0.0630139507
C  C28  1  0.59990000  0.78002000  0.59990000  1.0 0.0630139507
C  C29  1  0.59990000  0.59990000  0.78002000  1.0 0.0630139507
C  C30  1  0.78002000  0.59990000  0.59990000  1.0 0.0630139507
C  C31  1  0.28398000  0.36900000  0.36900000  1.0 0.3697528266
C  C32  1  0.36900000  0.36900000  0.28398000  1.0 0.3697528266
C  C33  1  0.36900000  0.28398000  0.36900000  1.0 0.3697528266
C  C34  1  0.63100000  0.71602000  0.63100000  1.0 0.3697528266
C  C35  1  0.63100000  0.63100000  0.71602000  1.0 0.3697528266
C  C36  1  0.71602000  0.63100000  0.63100000  1.0 0.3697528266
C  C37  1  0.20668000  0.81380000  0.63180000  1.0 0.0630139507
C  C38  1  0.81380000  0.63180000  0.20668000  1.0 0.0630139507
C  C39  1  0.63180000  0.20668000  0.81380000  1.0 0.0630139507
C  C40  1  0.18620000  0.79332000  0.36820000  1.0 0.0630139507
C  C41  1  0.36820000  0.18620000  0.79332000  1.0 0.0630139507
C  C42  1  0.79332000  0.36820000  0.18620000  1.0 0.0630139507
C  C43  1  0.79332000  0.18620000  0.36820000  1.0 0.0630139507
C  C44  1  0.18620000  0.36820000  0.79332000  1.0 0.0630139507
C  C45  1  0.36820000  0.79332000  0.18620000  1.0 0.0630139507
C  C46  1  0.81380000  0.20668000  0.63180000  1.0 0.0630139507
C  C47  1  0.63180000  0.81380000  0.20668000  1.0 0.0630139507
C  C48  1  0.20668000  0.63180000  0.81380000  1.0 0.0630139507
N  N1  1  0.09968000  0.45950000  0.45950000  1.0 -0.2066624589
N  N2  1  0.45950000  0.45950000  0.09968000  1.0 -0.2066624589
N  N3  1  0.45950000  0.09968000  0.45950000  1.0 -0.2066624589
N  N4  1  0.54050000  0.90032000  0.54050000  1.0 -0.2066624589
N  N5  1  0.54050000  0.54050000  0.90032000  1.0 -0.2066624589
N  N6  1  0.90032000  0.54050000  0.54050000  1.0 -0.2066624589
N  N7  1  0.15168000  0.71080000  0.59360000  1.0 -0.3333566762
N  N8  1  0.71080000  0.59360000  0.15168000  1.0 -0.3333566762
N  N9  1  0.59360000  0.15168000  0.71080000  1.0 -0.3333566762
N  N10  1  0.28920000  0.84832000  0.40640000  1.0 -0.3333566762
N  N11  1  0.40640000  0.28920000  0.84832000  1.0 -0.3333566762
N  N12  1  0.84832000  0.40640000  0.28920000  1.0 -0.3333566762
N  N13  1  0.84832000  0.28920000  0.40640000  1.0 -0.3333566762
N  N14  1  0.28920000  0.40640000  0.84832000  1.0 -0.3333566762
N  N15  1  0.40640000  0.84832000  0.28920000  1.0 -0.3333566762
N  N16  1  0.71080000  0.15168000  0.59360000  1.0 -0.3333566762
N  N17  1  0.59360000  0.71080000  0.15168000  1.0 -0.3333566762
N  N18  1  0.15168000  0.59360000  0.71080000  1.0 -0.3333566762
N  N19  1  0.30634000  0.30634000  0.39730000  1.0 -0.4249896086
N  N20  1  0.30634000  0.39730000  0.30634000  1.0 -0.4249896086
N  N21  1  0.39730000  0.30634000  0.30634000  1.0 -0.4249896086
N  N22  1  0.69366000  0.69366000  0.60270000  1.0 -0.4249896086
N  N23  1  0.60270000  0.69366000  0.69366000  1.0 -0.4249896086
N  N24  1  0.69366000  0.60270000  0.69366000  1.0 -0.4249896086
