# DDEC6 charges by PACMAN v1.1 (https://github.com/mtap-research/PACMAN-charge/)
data_YOYVOZ_ASR_pacman
_symmetry_space_group_name_H-M   'P 1'
_cell_length_a   15.57960000
_cell_length_b   15.57960000
_cell_length_c   15.57960000
_cell_angle_alpha   115.83900000
_cell_angle_beta   115.83900000
_cell_angle_gamma   115.83900000
_symmetry_Int_Tables_number   1
_chemical_formula_structural   FeH8Au2(C2N)8
_chemical_formula_sum   'Fe3 H24 Au6 C48 N24'
_cell_volume   1944.95850614
_cell_formula_units_Z   3
loop_
 _symmetry_equiv_pos_site_id
 _symmetry_equiv_pos_as_xyz
  1  'x, y, z'
loop_
 _atom_site_type_symbol
 _atom_site_label
 _atom_site_symmetry_multiplicity
 _atom_site_fract_x
 _atom_site_fract_y
 _atom_site_fract_z
 _atom_site_occupancy
 _atom_site_charge
Fe  Fe1  1  0.50000000  0.00000000  0.50000000  1.0 0.7766112292
Fe  Fe2  1  0.00000000  0.50000000  0.50000000  1.0 0.7890466058
Fe  Fe3  1  0.50000000  0.50000000  0.00000000  1.0 0.7890466058
H  H1  1  0.39090000  0.11380000  0.53710000  1.0 0.1220625798
H  H2  1  0.11380000  0.53710000  0.39090000  1.0 0.1220625798
H  H3  1  0.53710000  0.39090000  0.11380000  1.0 0.1220625798
H  H4  1  0.88620000  0.60910000  0.46290000  1.0 0.1220625798
H  H5  1  0.46290000  0.88620000  0.60910000  1.0 0.1220625798
H  H6  1  0.60910000  0.46290000  0.88620000  1.0 0.1220625798
H  H7  1  0.60910000  0.88620000  0.46290000  1.0 0.1220625798
H  H8  1  0.88620000  0.46290000  0.60910000  1.0 0.1220625798
H  H9  1  0.46290000  0.60910000  0.88620000  1.0 0.1220625798
H  H10  1  0.11380000  0.39090000  0.53710000  1.0 0.1220625798
H  H11  1  0.53710000  0.11380000  0.39090000  1.0 0.1220625798
H  H12  1  0.39090000  0.53710000  0.11380000  1.0 0.1220625798
H  H13  1  0.32640000  0.20060000  0.47790000  1.0 0.1418828396
H  H14  1  0.20060000  0.47790000  0.32640000  1.0 0.1418828396
H  H15  1  0.47790000  0.32640000  0.20060000  1.0 0.1418828396
H  H16  1  0.79940000  0.67360000  0.52210000  1.0 0.1418828396
H  H17  1  0.52210000  0.79940000  0.67360000  1.0 0.1418828396
H  H18  1  0.67360000  0.52210000  0.79940000  1.0 0.1418828396
H  H19  1  0.67360000  0.79940000  0.52210000  1.0 0.1418828396
H  H20  1  0.79940000  0.52210000  0.67360000  1.0 0.1418828396
H  H21  1  0.52210000  0.67360000  0.79940000  1.0 0.1418828396
H  H22  1  0.20060000  0.32640000  0.47790000  1.0 0.1418828396
H  H23  1  0.47790000  0.20060000  0.32640000  1.0 0.1418828396
H  H24  1  0.32640000  0.47790000  0.20060000  1.0 0.1418828396
Au  Au1  1  0.00000000  0.29228000  0.70772000  1.0 -0.0324606857
Au  Au2  1  0.29228000  0.70772000  0.00000000  1.0 -0.0324606857
Au  Au3  1  0.70772000  0.00000000  0.29228000  1.0 -0.0324606857
Au  Au4  1  0.00000000  0.70772000  0.29228000  1.0 -0.0324606857
Au  Au5  1  0.70772000  0.29228000  0.00000000  1.0 -0.0324606857
Au  Au6  1  0.29228000  0.00000000  0.70772000  1.0 -0.0324606857
C  C1  1  0.81250000  0.20710000  0.63300000  1.0 0.0609959455
C  C2  1  0.20710000  0.63300000  0.81250000  1.0 0.0609959455
C  C3  1  0.63300000  0.81250000  0.20710000  1.0 0.0609959455
C  C4  1  0.79290000  0.18750000  0.36700000  1.0 0.0609959455
C  C5  1  0.36700000  0.79290000  0.18750000  1.0 0.0609959455
C  C6  1  0.18750000  0.36700000  0.79290000  1.0 0.0609959455
C  C7  1  0.18750000  0.79290000  0.36700000  1.0 0.0609959455
C  C8  1  0.79290000  0.36700000  0.18750000  1.0 0.0609959455
C  C9  1  0.36700000  0.18750000  0.79290000  1.0 0.0609959455
C  C10  1  0.20710000  0.81250000  0.63300000  1.0 0.0609959455
C  C11  1  0.63300000  0.20710000  0.81250000  1.0 0.0609959455
C  C12  1  0.81250000  0.63300000  0.20710000  1.0 0.0609959455
C  C13  1  0.40660000  0.12950000  0.49190000  1.0 0.0839333936
C  C14  1  0.12950000  0.49190000  0.40660000  1.0 0.0839333936
C  C15  1  0.49190000  0.40660000  0.12950000  1.0 0.0839333936
C  C16  1  0.87050000  0.59340000  0.50810000  1.0 0.0839333936
C  C17  1  0.50810000  0.87050000  0.59340000  1.0 0.0839333936
C  C18  1  0.59340000  0.50810000  0.87050000  1.0 0.0839333936
C  C19  1  0.59340000  0.87050000  0.50810000  1.0 0.0839333936
C  C20  1  0.87050000  0.50810000  0.59340000  1.0 0.0839333936
C  C21  1  0.50810000  0.59340000  0.87050000  1.0 0.0839333936
C  C22  1  0.12950000  0.40660000  0.49190000  1.0 0.0839333936
C  C23  1  0.49190000  0.12950000  0.40660000  1.0 0.0839333936
C  C24  1  0.40660000  0.49190000  0.12950000  1.0 0.0839333936
C  C25  1  0.37070000  0.18510000  0.46020000  1.0 -0.1596926397
C  C26  1  0.18510000  0.46020000  0.37070000  1.0 -0.1596926397
C  C27  1  0.46020000  0.37070000  0.18510000  1.0 -0.1596926397
C  C28  1  0.81490000  0.62930000  0.53980000  1.0 -0.1596926397
C  C29  1  0.53980000  0.81490000  0.62930000  1.0 -0.1596926397
C  C30  1  0.62930000  0.53980000  0.81490000  1.0 -0.1596926397
C  C31  1  0.62930000  0.81490000  0.53980000  1.0 -0.1596926397
C  C32  1  0.81490000  0.53980000  0.62930000  1.0 -0.1596926397
C  C33  1  0.53980000  0.62930000  0.81490000  1.0 -0.1596926397
C  C34  1  0.18510000  0.37070000  0.46020000  1.0 -0.1596926397
C  C35  1  0.46020000  0.18510000  0.37070000  1.0 -0.1596926397
C  C36  1  0.37070000  0.46020000  0.18510000  1.0 -0.1596926397
C  C37  1  0.40180000  0.21840000  0.40180000  1.0 0.0533878521
C  C38  1  0.21840000  0.40180000  0.40180000  1.0 0.0533878521
C  C39  1  0.40180000  0.40180000  0.21840000  1.0 0.0533878521
C  C40  1  0.78160000  0.59820000  0.59820000  1.0 0.0533878521
C  C41  1  0.59820000  0.78160000  0.59820000  1.0 0.0533878521
C  C42  1  0.59820000  0.59820000  0.78160000  1.0 0.0533878521
C  C43  1  0.36865000  0.28170000  0.36865000  1.0 0.3693819248
C  C44  1  0.28170000  0.36865000  0.36865000  1.0 0.3693819248
C  C45  1  0.36865000  0.36865000  0.28170000  1.0 0.3693819248
C  C46  1  0.71830000  0.63135000  0.63135000  1.0 0.3693819248
C  C47  1  0.63135000  0.71830000  0.63135000  1.0 0.3693819248
C  C48  1  0.63135000  0.63135000  0.71830000  1.0 0.3693819248
N  N1  1  0.70380000  0.14480000  0.59190000  1.0 -0.3387163328
N  N2  1  0.14480000  0.59190000  0.70380000  1.0 -0.3387163328
N  N3  1  0.59190000  0.70380000  0.14480000  1.0 -0.3387163328
N  N4  1  0.85520000  0.29620000  0.40810000  1.0 -0.3387163328
N  N5  1  0.40810000  0.85520000  0.29620000  1.0 -0.3387163328
N  N6  1  0.29620000  0.40810000  0.85520000  1.0 -0.3387163328
N  N7  1  0.29620000  0.85520000  0.40810000  1.0 -0.3387163328
N  N8  1  0.85520000  0.40810000  0.29620000  1.0 -0.3387163328
N  N9  1  0.40810000  0.29620000  0.85520000  1.0 -0.3387163328
N  N10  1  0.14480000  0.70380000  0.59190000  1.0 -0.3387163328
N  N11  1  0.59190000  0.14480000  0.70380000  1.0 -0.3387163328
N  N12  1  0.70380000  0.59190000  0.14480000  1.0 -0.3387163328
N  N13  1  0.46180000  0.09540000  0.46180000  1.0 -0.1927642471
N  N14  1  0.09540000  0.46180000  0.46180000  1.0 -0.1927642471
N  N15  1  0.46180000  0.46180000  0.09540000  1.0 -0.1927642471
N  N16  1  0.90460000  0.53820000  0.53820000  1.0 -0.1927642471
N  N17  1  0.53820000  0.90460000  0.53820000  1.0 -0.1927642471
N  N18  1  0.53820000  0.53820000  0.90460000  1.0 -0.1927642471
N  N19  1  0.39720000  0.30640000  0.30640000  1.0 -0.4109271562
N  N20  1  0.30640000  0.30640000  0.39720000  1.0 -0.4109271562
N  N21  1  0.30640000  0.39720000  0.30640000  1.0 -0.4109271562
N  N22  1  0.69360000  0.60280000  0.69360000  1.0 -0.4109271562
N  N23  1  0.69360000  0.69360000  0.60280000  1.0 -0.4109271562
N  N24  1  0.60280000  0.69360000  0.69360000  1.0 -0.4109271562
