# DDEC6 charges by PACMAN v1.1 (https://github.com/mtap-research/PACMAN-charge/)
data_YOYWEQ01_FSR_pacman
_symmetry_space_group_name_H-M   'P 1'
_cell_length_a   15.44380000
_cell_length_b   15.44380000
_cell_length_c   15.44380000
_cell_angle_alpha   115.99400000
_cell_angle_beta   115.99400000
_cell_angle_gamma   115.99400000
_symmetry_Int_Tables_number   1
_chemical_formula_structural   FeH8Au2(C2N)8
_chemical_formula_sum   'Fe3 H24 Au6 C48 N24'
_cell_volume   1861.41615754
_cell_formula_units_Z   3
loop_
 _symmetry_equiv_pos_site_id
 _symmetry_equiv_pos_as_xyz
  1  'x, y, z'
loop_
 _atom_site_type_symbol
 _atom_site_label
 _atom_site_symmetry_multiplicity
 _atom_site_fract_x
 _atom_site_fract_y
 _atom_site_fract_z
 _atom_site_occupancy
 _atom_site_charge
Fe  Fe1  1  0.50000000  0.50000000  0.00000000  1.0 0.5752420227
Fe  Fe2  1  0.50000000  0.00000000  0.50000000  1.0 0.5752420227
Fe  Fe3  1  0.00000000  0.50000000  0.50000000  1.0 0.5752420227
H  H1  1  0.38640000  0.53550000  0.10680000  1.0 0.1271641975
H  H2  1  0.53550000  0.10680000  0.38640000  1.0 0.1271641975
H  H3  1  0.10680000  0.38640000  0.53550000  1.0 0.1271641975
H  H4  1  0.46450000  0.61360000  0.89320000  1.0 0.1271641975
H  H5  1  0.89320000  0.46450000  0.61360000  1.0 0.1271641975
H  H6  1  0.61360000  0.89320000  0.46450000  1.0 0.1271641975
H  H7  1  0.61360000  0.46450000  0.89320000  1.0 0.1271641975
H  H8  1  0.46450000  0.89320000  0.61360000  1.0 0.1271641975
H  H9  1  0.89320000  0.61360000  0.46450000  1.0 0.1271641975
H  H10  1  0.53550000  0.38640000  0.10680000  1.0 0.1271641975
H  H11  1  0.10680000  0.53550000  0.38640000  1.0 0.1271641975
H  H12  1  0.38640000  0.10680000  0.53550000  1.0 0.1271641975
H  H13  1  0.32890000  0.48260000  0.20370000  1.0 0.1420722206
H  H14  1  0.48260000  0.20370000  0.32890000  1.0 0.1420722206
H  H15  1  0.20370000  0.32890000  0.48260000  1.0 0.1420722206
H  H16  1  0.51740000  0.67110000  0.79630000  1.0 0.1420722206
H  H17  1  0.79630000  0.51740000  0.67110000  1.0 0.1420722206
H  H18  1  0.67110000  0.79630000  0.51740000  1.0 0.1420722206
H  H19  1  0.67110000  0.51740000  0.79630000  1.0 0.1420722206
H  H20  1  0.51740000  0.79630000  0.67110000  1.0 0.1420722206
H  H21  1  0.79630000  0.67110000  0.51740000  1.0 0.1420722206
H  H22  1  0.48260000  0.32890000  0.20370000  1.0 0.1420722206
H  H23  1  0.20370000  0.48260000  0.32890000  1.0 0.1420722206
H  H24  1  0.32890000  0.20370000  0.48260000  1.0 0.1420722206
Au  Au1  1  0.29377000  0.00000000  0.70623000  1.0 -0.0537219706
Au  Au2  1  0.00000000  0.70623000  0.29377000  1.0 -0.0551883603
Au  Au3  1  0.70623000  0.29377000  0.00000000  1.0 -0.0537219706
Au  Au4  1  0.70623000  0.00000000  0.29377000  1.0 -0.0551883603
Au  Au5  1  0.00000000  0.29377000  0.70623000  1.0 -0.0551883603
Au  Au6  1  0.29377000  0.70623000  0.00000000  1.0 -0.0537219706
C  C1  1  0.36660000  0.18910000  0.79260000  1.0 0.051961127
C  C2  1  0.18910000  0.79260000  0.36660000  1.0 0.051961127
C  C3  1  0.79260000  0.36660000  0.18910000  1.0 0.051961127
C  C4  1  0.81090000  0.63340000  0.20740000  1.0 0.051961127
C  C5  1  0.20740000  0.81090000  0.63340000  1.0 0.051961127
C  C6  1  0.63340000  0.20740000  0.81090000  1.0 0.051961127
C  C7  1  0.63340000  0.81090000  0.20740000  1.0 0.051961127
C  C8  1  0.81090000  0.20740000  0.63340000  1.0 0.051961127
C  C9  1  0.20740000  0.63340000  0.81090000  1.0 0.051961127
C  C10  1  0.18910000  0.36660000  0.79260000  1.0 0.051961127
C  C11  1  0.79260000  0.18910000  0.36660000  1.0 0.051961127
C  C12  1  0.36660000  0.79260000  0.18910000  1.0 0.051961127
C  C13  1  0.40350000  0.49120000  0.12440000  1.0 0.0870958219
C  C14  1  0.49120000  0.12440000  0.40350000  1.0 0.0870958219
C  C15  1  0.12440000  0.40350000  0.49120000  1.0 0.0870958219
C  C16  1  0.50880000  0.59650000  0.87560000  1.0 0.0870958219
C  C17  1  0.87560000  0.50880000  0.59650000  1.0 0.0870958219
C  C18  1  0.59650000  0.87560000  0.50880000  1.0 0.0870958219
C  C19  1  0.59650000  0.50880000  0.87560000  1.0 0.0870958219
C  C20  1  0.50880000  0.87560000  0.59650000  1.0 0.0870958219
C  C21  1  0.87560000  0.59650000  0.50880000  1.0 0.0870958219
C  C22  1  0.49120000  0.40350000  0.12440000  1.0 0.0870958219
C  C23  1  0.12440000  0.49120000  0.40350000  1.0 0.0870958219
C  C24  1  0.40350000  0.12440000  0.49120000  1.0 0.0870958219
C  C25  1  0.36940000  0.46050000  0.18380000  1.0 -0.1643131251
C  C26  1  0.46050000  0.18380000  0.36940000  1.0 -0.1643131251
C  C27  1  0.18380000  0.36940000  0.46050000  1.0 -0.1643131251
C  C28  1  0.53950000  0.63060000  0.81620000  1.0 -0.1643131251
C  C29  1  0.81620000  0.53950000  0.63060000  1.0 -0.1643131251
C  C30  1  0.63060000  0.81620000  0.53950000  1.0 -0.1643131251
C  C31  1  0.63060000  0.53950000  0.81620000  1.0 -0.1643131251
C  C32  1  0.53950000  0.81620000  0.63060000  1.0 -0.1643131251
C  C33  1  0.81620000  0.63060000  0.53950000  1.0 -0.1643131251
C  C34  1  0.46050000  0.36940000  0.18380000  1.0 -0.1643131251
C  C35  1  0.18380000  0.46050000  0.36940000  1.0 -0.1643131251
C  C36  1  0.36940000  0.18380000  0.46050000  1.0 -0.1643131251
C  C37  1  0.39625000  0.39625000  0.21340000  1.0 0.051961127
C  C38  1  0.39625000  0.21340000  0.39625000  1.0 0.051961127
C  C39  1  0.21340000  0.39625000  0.39625000  1.0 0.051961127
C  C40  1  0.60375000  0.60375000  0.78660000  1.0 0.051961127
C  C41  1  0.78660000  0.60375000  0.60375000  1.0 0.051961127
C  C42  1  0.60375000  0.78660000  0.60375000  1.0 0.051961127
C  C43  1  0.36295000  0.36295000  0.27580000  1.0 0.3571518858
C  C44  1  0.36295000  0.27580000  0.36295000  1.0 0.3571518858
C  C45  1  0.27580000  0.36295000  0.36295000  1.0 0.3571518858
C  C46  1  0.63705000  0.63705000  0.72420000  1.0 0.3571518858
C  C47  1  0.72420000  0.63705000  0.63705000  1.0 0.3571518858
C  C48  1  0.63705000  0.72420000  0.63705000  1.0 0.3571518858
N  N1  1  0.40840000  0.30130000  0.85820000  1.0 -0.301264055
N  N2  1  0.30130000  0.85820000  0.40840000  1.0 -0.301264055
N  N3  1  0.85820000  0.40840000  0.30130000  1.0 -0.301264055
N  N4  1  0.69870000  0.59160000  0.14180000  1.0 -0.301264055
N  N5  1  0.14180000  0.69870000  0.59160000  1.0 -0.301264055
N  N6  1  0.59160000  0.14180000  0.69870000  1.0 -0.301264055
N  N7  1  0.59160000  0.69870000  0.14180000  1.0 -0.301264055
N  N8  1  0.69870000  0.14180000  0.59160000  1.0 -0.301264055
N  N9  1  0.14180000  0.59160000  0.69870000  1.0 -0.301264055
N  N10  1  0.30130000  0.40840000  0.85820000  1.0 -0.301264055
N  N11  1  0.85820000  0.30130000  0.40840000  1.0 -0.301264055
N  N12  1  0.40840000  0.85820000  0.30130000  1.0 -0.301264055
N  N13  1  0.54030000  0.54030000  0.90880000  1.0 -0.1223890285
N  N14  1  0.54030000  0.90880000  0.54030000  1.0 -0.1223890285
N  N15  1  0.90880000  0.54030000  0.54030000  1.0 -0.1223890285
N  N16  1  0.45970000  0.45970000  0.09120000  1.0 -0.1223890285
N  N17  1  0.09120000  0.45970000  0.45970000  1.0 -0.1223890285
N  N18  1  0.45970000  0.09120000  0.45970000  1.0 -0.1223890285
N  N19  1  0.30225000  0.39300000  0.30225000  1.0 -0.405322204
N  N20  1  0.39300000  0.30225000  0.30225000  1.0 -0.405322204
N  N21  1  0.30225000  0.30225000  0.39300000  1.0 -0.405322204
N  N22  1  0.60700000  0.69775000  0.69775000  1.0 -0.405322204
N  N23  1  0.69775000  0.60700000  0.69775000  1.0 -0.405322204
N  N24  1  0.69775000  0.69775000  0.60700000  1.0 -0.405322204
