# DDEC6 charges by PACMAN v1.1 (https://github.com/mtap-research/PACMAN-charge/)
data_YOYWEQ_FSR_pacman
_symmetry_space_group_name_H-M   'P 1'
_cell_length_a   15.83480000
_cell_length_b   15.83480000
_cell_length_c   15.83480000
_cell_angle_alpha   115.96400000
_cell_angle_beta   115.96400000
_cell_angle_gamma   115.96400000
_symmetry_Int_Tables_number   1
_chemical_formula_structural   FeH8Au2(C2N)8
_chemical_formula_sum   'Fe3 H24 Au6 C48 N24'
_cell_volume   2013.38219918
_cell_formula_units_Z   3
loop_
 _symmetry_equiv_pos_site_id
 _symmetry_equiv_pos_as_xyz
  1  'x, y, z'
loop_
 _atom_site_type_symbol
 _atom_site_label
 _atom_site_symmetry_multiplicity
 _atom_site_fract_x
 _atom_site_fract_y
 _atom_site_fract_z
 _atom_site_occupancy
 _atom_site_charge
Fe  Fe1  1  0.50000000  0.50000000  0.00000000  1.0 0.7714321747
Fe  Fe2  1  0.50000000  0.00000000  0.50000000  1.0 0.7714321747
Fe  Fe3  1  0.00000000  0.50000000  0.50000000  1.0 0.7714321747
H  H1  1  0.36500000  0.51150000  0.09350000  1.0 0.1263568163
H  H2  1  0.51150000  0.09350000  0.36500000  1.0 0.1263568163
H  H3  1  0.09350000  0.36500000  0.51150000  1.0 0.1263568163
H  H4  1  0.48850000  0.63500000  0.90650000  1.0 0.1263568163
H  H5  1  0.90650000  0.48850000  0.63500000  1.0 0.1263568163
H  H6  1  0.63500000  0.90650000  0.48850000  1.0 0.1263568163
H  H7  1  0.63500000  0.48850000  0.90650000  1.0 0.1263568163
H  H8  1  0.48850000  0.90650000  0.63500000  1.0 0.1263568163
H  H9  1  0.90650000  0.63500000  0.48850000  1.0 0.1263568163
H  H10  1  0.51150000  0.36500000  0.09350000  1.0 0.1263568163
H  H11  1  0.09350000  0.51150000  0.36500000  1.0 0.1263568163
H  H12  1  0.36500000  0.09350000  0.51150000  1.0 0.1263568163
H  H13  1  0.32330000  0.47320000  0.19960000  1.0 0.1437847848
H  H14  1  0.47320000  0.19960000  0.32330000  1.0 0.1437847848
H  H15  1  0.19960000  0.32330000  0.47320000  1.0 0.1437847848
H  H16  1  0.52680000  0.67670000  0.80040000  1.0 0.1437847848
H  H17  1  0.80040000  0.52680000  0.67670000  1.0 0.1437847848
H  H18  1  0.67670000  0.80040000  0.52680000  1.0 0.1437847848
H  H19  1  0.67670000  0.52680000  0.80040000  1.0 0.1437847848
H  H20  1  0.52680000  0.80040000  0.67670000  1.0 0.1437847848
H  H21  1  0.80040000  0.67670000  0.52680000  1.0 0.1437847848
H  H22  1  0.47320000  0.32330000  0.19960000  1.0 0.1437847848
H  H23  1  0.19960000  0.47320000  0.32330000  1.0 0.1437847848
H  H24  1  0.32330000  0.19960000  0.47320000  1.0 0.1437847848
Au  Au1  1  0.70640000  0.00000000  0.29360000  1.0 -0.0061053469
Au  Au2  1  0.00000000  0.29360000  0.70640000  1.0 -0.0061053469
Au  Au3  1  0.29360000  0.70640000  0.00000000  1.0 -0.0061053469
Au  Au4  1  0.29360000  0.00000000  0.70640000  1.0 -0.0061053469
Au  Au5  1  0.00000000  0.70640000  0.29360000  1.0 -0.0061053469
Au  Au6  1  0.70640000  0.29360000  0.00000000  1.0 -0.0061053469
C  C1  1  0.38880000  0.47550000  0.11770000  1.0 0.0897320258
C  C2  1  0.47550000  0.11770000  0.38880000  1.0 0.0897320258
C  C3  1  0.11770000  0.38880000  0.47550000  1.0 0.0897320258
C  C4  1  0.52450000  0.61120000  0.88230000  1.0 0.0897320258
C  C5  1  0.88230000  0.52450000  0.61120000  1.0 0.0897320258
C  C6  1  0.61120000  0.88230000  0.52450000  1.0 0.0897320258
C  C7  1  0.61120000  0.52450000  0.88230000  1.0 0.0897320258
C  C8  1  0.52450000  0.88230000  0.61120000  1.0 0.0897320258
C  C9  1  0.88230000  0.61120000  0.52450000  1.0 0.0897320258
C  C10  1  0.47550000  0.38880000  0.11770000  1.0 0.0897320258
C  C11  1  0.11770000  0.47550000  0.38880000  1.0 0.0897320258
C  C12  1  0.38880000  0.11770000  0.47550000  1.0 0.0897320258
C  C13  1  0.36360000  0.45220000  0.18120000  1.0 -0.1576345106
C  C14  1  0.45220000  0.18120000  0.36360000  1.0 -0.1576345106
C  C15  1  0.18120000  0.36360000  0.45220000  1.0 -0.1576345106
C  C16  1  0.54780000  0.63640000  0.81880000  1.0 -0.1576345106
C  C17  1  0.81880000  0.54780000  0.63640000  1.0 -0.1576345106
C  C18  1  0.63640000  0.81880000  0.54780000  1.0 -0.1576345106
C  C19  1  0.63640000  0.54780000  0.81880000  1.0 -0.1576345106
C  C20  1  0.54780000  0.81880000  0.63640000  1.0 -0.1576345106
C  C21  1  0.81880000  0.63640000  0.54780000  1.0 -0.1576345106
C  C22  1  0.45220000  0.36360000  0.18120000  1.0 -0.1576345106
C  C23  1  0.18120000  0.45220000  0.36360000  1.0 -0.1576345106
C  C24  1  0.36360000  0.18120000  0.45220000  1.0 -0.1576345106
C  C25  1  0.39710000  0.39710000  0.22080000  1.0 0.0583904166
C  C26  1  0.39710000  0.22080000  0.39710000  1.0 0.0583904166
C  C27  1  0.22080000  0.39710000  0.39710000  1.0 0.0583904166
C  C28  1  0.60290000  0.60290000  0.77920000  1.0 0.0583904166
C  C29  1  0.77920000  0.60290000  0.60290000  1.0 0.0583904166
C  C30  1  0.60290000  0.77920000  0.60290000  1.0 0.0583904166
C  C31  1  0.35770000  0.35780000  0.27250000  1.0 0.3451906676
C  C32  1  0.35780000  0.27250000  0.35770000  1.0 0.3451906676
C  C33  1  0.27250000  0.35770000  0.35780000  1.0 0.3451906676
C  C34  1  0.64220000  0.64230000  0.72750000  1.0 0.3451906676
C  C35  1  0.72750000  0.64220000  0.64230000  1.0 0.3451906676
C  C36  1  0.64230000  0.72750000  0.64220000  1.0 0.3451906676
C  C37  1  0.63340000  0.81700000  0.20960000  1.0 0.0583904166
C  C38  1  0.81700000  0.20960000  0.63340000  1.0 0.0583904166
C  C39  1  0.20960000  0.63340000  0.81700000  1.0 0.0583904166
C  C40  1  0.18300000  0.36660000  0.79040000  1.0 0.0583904166
C  C41  1  0.79040000  0.18300000  0.36660000  1.0 0.0583904166
C  C42  1  0.36660000  0.79040000  0.18300000  1.0 0.0583904166
C  C43  1  0.36660000  0.18300000  0.79040000  1.0 0.0583904166
C  C44  1  0.18300000  0.79040000  0.36660000  1.0 0.0583904166
C  C45  1  0.79040000  0.36660000  0.18300000  1.0 0.0583904166
C  C46  1  0.81700000  0.63340000  0.20960000  1.0 0.0583904166
C  C47  1  0.20960000  0.81700000  0.63340000  1.0 0.0583904166
C  C48  1  0.63340000  0.20960000  0.81700000  1.0 0.0583904166
N  N1  1  0.44870000  0.44880000  0.09050000  1.0 -0.2042911713
N  N2  1  0.44880000  0.09050000  0.44870000  1.0 -0.2042911713
N  N3  1  0.09050000  0.44870000  0.44880000  1.0 -0.2042911713
N  N4  1  0.55120000  0.55130000  0.90950000  1.0 -0.2042911713
N  N5  1  0.90950000  0.55120000  0.55130000  1.0 -0.2042911713
N  N6  1  0.55130000  0.90950000  0.55120000  1.0 -0.2042911713
N  N7  1  0.59300000  0.70910000  0.15210000  1.0 -0.3448595238
N  N8  1  0.70910000  0.15210000  0.59300000  1.0 -0.3448595238
N  N9  1  0.15210000  0.59300000  0.70910000  1.0 -0.3456552689
N  N10  1  0.29090000  0.40700000  0.84790000  1.0 -0.3456552689
N  N11  1  0.84790000  0.29090000  0.40700000  1.0 -0.3448595238
N  N12  1  0.40700000  0.84790000  0.29090000  1.0 -0.3448595238
N  N13  1  0.40700000  0.29090000  0.84790000  1.0 -0.3448595238
N  N14  1  0.29090000  0.84790000  0.40700000  1.0 -0.3448595238
N  N15  1  0.84790000  0.40700000  0.29090000  1.0 -0.3448595238
N  N16  1  0.70910000  0.59300000  0.15210000  1.0 -0.3448595238
N  N17  1  0.15210000  0.70910000  0.59300000  1.0 -0.3456552689
N  N18  1  0.59300000  0.15210000  0.70910000  1.0 -0.3448595238
N  N19  1  0.39160000  0.29970000  0.29970000  1.0 -0.410042799
N  N20  1  0.29970000  0.29970000  0.39160000  1.0 -0.410042799
N  N21  1  0.29970000  0.39160000  0.29970000  1.0 -0.410042799
N  N22  1  0.70030000  0.60840000  0.70030000  1.0 -0.410042799
N  N23  1  0.70030000  0.70030000  0.60840000  1.0 -0.410042799
N  N24  1  0.60840000  0.70030000  0.70030000  1.0 -0.410042799
