# DDEC6 charges by PACMAN v1.1 (https://github.com/mtap-research/PACMAN-charge/)
data_YOZJEE01_ASR_pacman
_symmetry_space_group_name_H-M   'P 1'
_cell_length_a   15.87410000
_cell_length_b   15.87410000
_cell_length_c   15.87410000
_cell_angle_alpha   115.67400000
_cell_angle_beta   115.67400000
_cell_angle_gamma   115.67400000
_symmetry_Int_Tables_number   1
_chemical_formula_structural   FeAg2H8(C2N)8
_chemical_formula_sum   'Fe3 Ag6 H24 C48 N24'
_cell_volume   2094.73695013
_cell_formula_units_Z   3
loop_
 _symmetry_equiv_pos_site_id
 _symmetry_equiv_pos_as_xyz
  1  'x, y, z'
loop_
 _atom_site_type_symbol
 _atom_site_label
 _atom_site_symmetry_multiplicity
 _atom_site_fract_x
 _atom_site_fract_y
 _atom_site_fract_z
 _atom_site_occupancy
 _atom_site_charge
Fe  Fe1  1  0.50000000  0.50000000  0.00000000  1.0 0.762923704
Fe  Fe2  1  0.50000000  0.00000000  0.50000000  1.0 0.762923704
Fe  Fe3  1  0.00000000  0.50000000  0.50000000  1.0 0.762923704
Ag  Ag1  1  0.70171000  0.00000000  0.29829000  1.0 0.1491654554
Ag  Ag2  1  0.00000000  0.29829000  0.70171000  1.0 0.1491654554
Ag  Ag3  1  0.29829000  0.70171000  0.00000000  1.0 0.1491654554
Ag  Ag4  1  0.29829000  0.00000000  0.70171000  1.0 0.1491654554
Ag  Ag5  1  0.00000000  0.70171000  0.29829000  1.0 0.1491654554
Ag  Ag6  1  0.70171000  0.29829000  0.00000000  1.0 0.1491654554
H  H1  1  0.38160000  0.52590000  0.10990000  1.0 0.1194875925
H  H2  1  0.52590000  0.10990000  0.38160000  1.0 0.1194875925
H  H3  1  0.10990000  0.38160000  0.52590000  1.0 0.1194875925
H  H4  1  0.47410000  0.61840000  0.89010000  1.0 0.1194875925
H  H5  1  0.89010000  0.47410000  0.61840000  1.0 0.1194875925
H  H6  1  0.61840000  0.89010000  0.47410000  1.0 0.1194875925
H  H7  1  0.61840000  0.47410000  0.89010000  1.0 0.1194875925
H  H8  1  0.47410000  0.89010000  0.61840000  1.0 0.1194875925
H  H9  1  0.89010000  0.61840000  0.47410000  1.0 0.1194875925
H  H10  1  0.52590000  0.38160000  0.10990000  1.0 0.1194875925
H  H11  1  0.10990000  0.52590000  0.38160000  1.0 0.1194875925
H  H12  1  0.38160000  0.10990000  0.52590000  1.0 0.1194875925
H  H13  1  0.33220000  0.48210000  0.21030000  1.0 0.1402413511
H  H14  1  0.48210000  0.21030000  0.33220000  1.0 0.1402413511
H  H15  1  0.21030000  0.33220000  0.48210000  1.0 0.1402413511
H  H16  1  0.51790000  0.66780000  0.78970000  1.0 0.1402413511
H  H17  1  0.78970000  0.51790000  0.66780000  1.0 0.1402413511
H  H18  1  0.66780000  0.78970000  0.51790000  1.0 0.1402413511
H  H19  1  0.66780000  0.51790000  0.78970000  1.0 0.1402413511
H  H20  1  0.51790000  0.78970000  0.66780000  1.0 0.1402413511
H  H21  1  0.78970000  0.66780000  0.51790000  1.0 0.1402413511
H  H22  1  0.48210000  0.33220000  0.21030000  1.0 0.1402413511
H  H23  1  0.21030000  0.48210000  0.33220000  1.0 0.1402413511
H  H24  1  0.33220000  0.21030000  0.48210000  1.0 0.1402413511
C  C1  1  0.40070000  0.48545000  0.12975000  1.0 0.0914315099
C  C2  1  0.48545000  0.12975000  0.40070000  1.0 0.0914315099
C  C3  1  0.12975000  0.40070000  0.48545000  1.0 0.0914315099
C  C4  1  0.51455000  0.59930000  0.87025000  1.0 0.0914315099
C  C5  1  0.87025000  0.51455000  0.59930000  1.0 0.0914315099
C  C6  1  0.59930000  0.87025000  0.51455000  1.0 0.0914315099
C  C7  1  0.59930000  0.51455000  0.87025000  1.0 0.0914315099
C  C8  1  0.51455000  0.87025000  0.59930000  1.0 0.0914315099
C  C9  1  0.87025000  0.59930000  0.51455000  1.0 0.0914315099
C  C10  1  0.48545000  0.40070000  0.12975000  1.0 0.0914315099
C  C11  1  0.12975000  0.48545000  0.40070000  1.0 0.0914315099
C  C12  1  0.40070000  0.12975000  0.48545000  1.0 0.0914315099
C  C13  1  0.36985000  0.45869000  0.18916000  1.0 -0.1724259641
C  C14  1  0.45869000  0.18916000  0.36985000  1.0 -0.1724259641
C  C15  1  0.18916000  0.36985000  0.45869000  1.0 -0.1724259641
C  C16  1  0.54131000  0.63015000  0.81084000  1.0 -0.1724259641
C  C17  1  0.81084000  0.54131000  0.63015000  1.0 -0.1724259641
C  C18  1  0.63015000  0.81084000  0.54131000  1.0 -0.1724259641
C  C19  1  0.63015000  0.54131000  0.81084000  1.0 -0.1724259641
C  C20  1  0.54131000  0.81084000  0.63015000  1.0 -0.1724259641
C  C21  1  0.81084000  0.63015000  0.54131000  1.0 -0.1724259641
C  C22  1  0.45869000  0.36985000  0.18916000  1.0 -0.1724259641
C  C23  1  0.18916000  0.45869000  0.36985000  1.0 -0.1724259641
C  C24  1  0.36985000  0.18916000  0.45869000  1.0 -0.1724259641
C  C25  1  0.39575000  0.39575000  0.21780000  1.0 0.0624076316
C  C26  1  0.39575000  0.21780000  0.39575000  1.0 0.0624076316
C  C27  1  0.21780000  0.39575000  0.39575000  1.0 0.0624076316
C  C28  1  0.60425000  0.60425000  0.78220000  1.0 0.0624076316
C  C29  1  0.78220000  0.60425000  0.60425000  1.0 0.0624076316
C  C30  1  0.60425000  0.78220000  0.60425000  1.0 0.0624076316
C  C31  1  0.36460000  0.36460000  0.28010000  1.0 0.3442926073
C  C32  1  0.36460000  0.28010000  0.36460000  1.0 0.3442926073
C  C33  1  0.28010000  0.36460000  0.36460000  1.0 0.3442926073
C  C34  1  0.63540000  0.63540000  0.71990000  1.0 0.3442926073
C  C35  1  0.71990000  0.63540000  0.63540000  1.0 0.3442926073
C  C36  1  0.63540000  0.71990000  0.63540000  1.0 0.3442926073
C  C37  1  0.62580000  0.80950000  0.20580000  1.0 -0.009754481
C  C38  1  0.80950000  0.20580000  0.62580000  1.0 -0.009754481
C  C39  1  0.20580000  0.62580000  0.80950000  1.0 -0.009754481
C  C40  1  0.19050000  0.37420000  0.79420000  1.0 -0.009754481
C  C41  1  0.79420000  0.19050000  0.37420000  1.0 -0.009754481
C  C42  1  0.37420000  0.79420000  0.19050000  1.0 -0.009754481
C  C43  1  0.37420000  0.19050000  0.79420000  1.0 -0.009754481
C  C44  1  0.19050000  0.79420000  0.37420000  1.0 -0.009754481
C  C45  1  0.79420000  0.37420000  0.19050000  1.0 -0.009754481
C  C46  1  0.80950000  0.62580000  0.20580000  1.0 -0.009754481
C  C47  1  0.20580000  0.80950000  0.62580000  1.0 -0.009754481
C  C48  1  0.62580000  0.20580000  0.80950000  1.0 -0.009754481
N  N1  1  0.45655000  0.45655000  0.09890000  1.0 -0.2071689105
N  N2  1  0.45655000  0.09890000  0.45655000  1.0 -0.2071689105
N  N3  1  0.09890000  0.45655000  0.45655000  1.0 -0.2071689105
N  N4  1  0.54345000  0.54345000  0.90110000  1.0 -0.2071689105
N  N5  1  0.90110000  0.54345000  0.54345000  1.0 -0.2071689105
N  N6  1  0.54345000  0.90110000  0.54345000  1.0 -0.2071689105
N  N7  1  0.58844000  0.70542000  0.14594000  1.0 -0.3336822029
N  N8  1  0.70542000  0.14594000  0.58844000  1.0 -0.3336822029
N  N9  1  0.14594000  0.58844000  0.70542000  1.0 -0.3336822029
N  N10  1  0.29458000  0.41156000  0.85406000  1.0 -0.3336822029
N  N11  1  0.85406000  0.29458000  0.41156000  1.0 -0.3336822029
N  N12  1  0.41156000  0.85406000  0.29458000  1.0 -0.3336822029
N  N13  1  0.41156000  0.29458000  0.85406000  1.0 -0.3336822029
N  N14  1  0.29458000  0.85406000  0.41156000  1.0 -0.3336822029
N  N15  1  0.85406000  0.41156000  0.29458000  1.0 -0.3336822029
N  N16  1  0.70542000  0.58844000  0.14594000  1.0 -0.3336822029
N  N17  1  0.14594000  0.70542000  0.58844000  1.0 -0.3336822029
N  N18  1  0.58844000  0.14594000  0.70542000  1.0 -0.3336822029
N  N19  1  0.39658000  0.30831000  0.30831000  1.0 -0.4007542467
N  N20  1  0.30831000  0.30831000  0.39658000  1.0 -0.4007542467
N  N21  1  0.30831000  0.39658000  0.30831000  1.0 -0.4007542467
N  N22  1  0.69169000  0.60342000  0.69169000  1.0 -0.4007542467
N  N23  1  0.69169000  0.69169000  0.60342000  1.0 -0.4007542467
N  N24  1  0.60342000  0.69169000  0.69169000  1.0 -0.4007542467
