# DDEC6 charges by PACMAN v1.1 (https://github.com/mtap-research/PACMAN-charge/)
data_YOZJEE_ASR_pacman
_symmetry_space_group_name_H-M   'P 1'
_cell_length_a   15.46930000
_cell_length_b   15.46930000
_cell_length_c   15.46930000
_cell_angle_alpha   115.86000000
_cell_angle_beta   115.86000000
_cell_angle_gamma   115.86000000
_symmetry_Int_Tables_number   1
_chemical_formula_structural   FeAg2H8(C2N)8
_chemical_formula_sum   'Fe3 Ag6 H24 C48 N24'
_cell_volume   1899.47627680
_cell_formula_units_Z   3
loop_
 _symmetry_equiv_pos_site_id
 _symmetry_equiv_pos_as_xyz
  1  'x, y, z'
loop_
 _atom_site_type_symbol
 _atom_site_label
 _atom_site_symmetry_multiplicity
 _atom_site_fract_x
 _atom_site_fract_y
 _atom_site_fract_z
 _atom_site_occupancy
 _atom_site_charge
Fe  Fe1  1  0.50000000  0.50000000  0.00000000  1.0 0.558337147
Fe  Fe2  1  0.50000000  0.00000000  0.50000000  1.0 0.558337147
Fe  Fe3  1  0.00000000  0.50000000  0.50000000  1.0 0.558337147
Ag  Ag1  1  0.29928000  0.00000000  0.70072000  1.0 0.1019162174
Ag  Ag2  1  0.00000000  0.70072000  0.29928000  1.0 0.1019162174
Ag  Ag3  1  0.70072000  0.29928000  0.00000000  1.0 0.1019162174
Ag  Ag4  1  0.70072000  0.00000000  0.29928000  1.0 0.1019162174
Ag  Ag5  1  0.00000000  0.29928000  0.70072000  1.0 0.1019162174
Ag  Ag6  1  0.29928000  0.70072000  0.00000000  1.0 0.1019162174
H  H1  1  0.46650000  0.61560000  0.89420000  1.0 0.1251366535
H  H2  1  0.61560000  0.89420000  0.46650000  1.0 0.1251366535
H  H3  1  0.89420000  0.46650000  0.61560000  1.0 0.1251366535
H  H4  1  0.38440000  0.53350000  0.10580000  1.0 0.1251366535
H  H5  1  0.10580000  0.38440000  0.53350000  1.0 0.1251366535
H  H6  1  0.53350000  0.10580000  0.38440000  1.0 0.1251366535
H  H7  1  0.53350000  0.38440000  0.10580000  1.0 0.1249389896
H  H8  1  0.38440000  0.10580000  0.53350000  1.0 0.1251366535
H  H9  1  0.10580000  0.53350000  0.38440000  1.0 0.1251366535
H  H10  1  0.61560000  0.46650000  0.89420000  1.0 0.1249389896
H  H11  1  0.89420000  0.61560000  0.46650000  1.0 0.1251366535
H  H12  1  0.46650000  0.89420000  0.61560000  1.0 0.1251366535
H  H13  1  0.51900000  0.67270000  0.79690000  1.0 0.1389066079
H  H14  1  0.67270000  0.79690000  0.51900000  1.0 0.1389066079
H  H15  1  0.79690000  0.51900000  0.67270000  1.0 0.1389066079
H  H16  1  0.32730000  0.48100000  0.20310000  1.0 0.1389066079
H  H17  1  0.20310000  0.32730000  0.48100000  1.0 0.1389066079
H  H18  1  0.48100000  0.20310000  0.32730000  1.0 0.1389066079
H  H19  1  0.48100000  0.32730000  0.20310000  1.0 0.1389066079
H  H20  1  0.32730000  0.20310000  0.48100000  1.0 0.1389066079
H  H21  1  0.20310000  0.48100000  0.32730000  1.0 0.1389066079
H  H22  1  0.67270000  0.51900000  0.79690000  1.0 0.1389066079
H  H23  1  0.79690000  0.67270000  0.51900000  1.0 0.1389066079
H  H24  1  0.51900000  0.79690000  0.67270000  1.0 0.1389066079
C  C1  1  0.50912000  0.59706000  0.87522000  1.0 0.0835328884
C  C2  1  0.59706000  0.87522000  0.50912000  1.0 0.0835328884
C  C3  1  0.87522000  0.50912000  0.59706000  1.0 0.0835328884
C  C4  1  0.40294000  0.49088000  0.12478000  1.0 0.0835328884
C  C5  1  0.12478000  0.40294000  0.49088000  1.0 0.0835328884
C  C6  1  0.49088000  0.12478000  0.40294000  1.0 0.0835328884
C  C7  1  0.49088000  0.40294000  0.12478000  1.0 0.0835328884
C  C8  1  0.40294000  0.12478000  0.49088000  1.0 0.0835328884
C  C9  1  0.12478000  0.49088000  0.40294000  1.0 0.0835328884
C  C10  1  0.59706000  0.50912000  0.87522000  1.0 0.0835328884
C  C11  1  0.87522000  0.59706000  0.50912000  1.0 0.0835328884
C  C12  1  0.50912000  0.87522000  0.59706000  1.0 0.0835328884
C  C13  1  0.53974000  0.63121000  0.81615000  1.0 -0.1707331949
C  C14  1  0.63121000  0.81615000  0.53974000  1.0 -0.1707331949
C  C15  1  0.81615000  0.53974000  0.63121000  1.0 -0.1707331949
C  C16  1  0.36879000  0.46026000  0.18385000  1.0 -0.1707331949
C  C17  1  0.18385000  0.36879000  0.46026000  1.0 -0.1707331949
C  C18  1  0.46026000  0.18385000  0.36879000  1.0 -0.1707331949
C  C19  1  0.46026000  0.36879000  0.18385000  1.0 -0.1707331949
C  C20  1  0.36879000  0.18385000  0.46026000  1.0 -0.1707331949
C  C21  1  0.18385000  0.46026000  0.36879000  1.0 -0.1707331949
C  C22  1  0.63121000  0.53974000  0.81615000  1.0 -0.1707331949
C  C23  1  0.81615000  0.63121000  0.53974000  1.0 -0.1707331949
C  C24  1  0.53974000  0.81615000  0.63121000  1.0 -0.1707331949
C  C25  1  0.60185000  0.60185000  0.78610000  1.0 0.0608464596
C  C26  1  0.60185000  0.78610000  0.60185000  1.0 0.0608464596
C  C27  1  0.78610000  0.60185000  0.60185000  1.0 0.0608464596
C  C28  1  0.39815000  0.39815000  0.21390000  1.0 0.0608464596
C  C29  1  0.21390000  0.39815000  0.39815000  1.0 0.0608464596
C  C30  1  0.39815000  0.21390000  0.39815000  1.0 0.0608464596
C  C31  1  0.63765000  0.63765000  0.72350000  1.0 0.3595670163
C  C32  1  0.63765000  0.72350000  0.63765000  1.0 0.3595670163
C  C33  1  0.72350000  0.63765000  0.63765000  1.0 0.3595670163
C  C34  1  0.36235000  0.36235000  0.27650000  1.0 0.3595670163
C  C35  1  0.27650000  0.36235000  0.36235000  1.0 0.3595670163
C  C36  1  0.36235000  0.27650000  0.36235000  1.0 0.3595670163
C  C37  1  0.37120000  0.19400000  0.79250000  1.0 -0.0230998187
C  C38  1  0.19400000  0.79250000  0.37120000  1.0 -0.0230998187
C  C39  1  0.79250000  0.37120000  0.19400000  1.0 -0.0253070029
C  C40  1  0.80600000  0.62880000  0.20750000  1.0 -0.0230998187
C  C41  1  0.20750000  0.80600000  0.62880000  1.0 -0.0230998187
C  C42  1  0.62880000  0.20750000  0.80600000  1.0 -0.0230998187
C  C43  1  0.62880000  0.80600000  0.20750000  1.0 -0.0230998187
C  C44  1  0.80600000  0.20750000  0.62880000  1.0 -0.0230998187
C  C45  1  0.20750000  0.62880000  0.80600000  1.0 -0.0230998187
C  C46  1  0.19400000  0.37120000  0.79250000  1.0 -0.0230998187
C  C47  1  0.79250000  0.19400000  0.37120000  1.0 -0.0230998187
C  C48  1  0.37120000  0.79250000  0.19400000  1.0 -0.0230998187
N  N1  1  0.53825000  0.53825000  0.90670000  1.0 -0.1343974596
N  N2  1  0.53825000  0.90670000  0.53825000  1.0 -0.1352012208
N  N3  1  0.90670000  0.53825000  0.53825000  1.0 -0.1343974596
N  N4  1  0.46175000  0.46175000  0.09330000  1.0 -0.1343974596
N  N5  1  0.09330000  0.46175000  0.46175000  1.0 -0.1343974596
N  N6  1  0.46175000  0.09330000  0.46175000  1.0 -0.1352012208
N  N7  1  0.41149000  0.30436000  0.86025000  1.0 -0.282614626
N  N8  1  0.30436000  0.86025000  0.41149000  1.0 -0.282614626
N  N9  1  0.86025000  0.41149000  0.30436000  1.0 -0.282614626
N  N10  1  0.69564000  0.58851000  0.13975000  1.0 -0.282614626
N  N11  1  0.13975000  0.69564000  0.58851000  1.0 -0.282614626
N  N12  1  0.58851000  0.13975000  0.69564000  1.0 -0.282614626
N  N13  1  0.58851000  0.69564000  0.13975000  1.0 -0.282614626
N  N14  1  0.69564000  0.13975000  0.58851000  1.0 -0.282614626
N  N15  1  0.13975000  0.58851000  0.69564000  1.0 -0.282614626
N  N16  1  0.30436000  0.41149000  0.86025000  1.0 -0.282614626
N  N17  1  0.86025000  0.30436000  0.41149000  1.0 -0.282614626
N  N18  1  0.41149000  0.86025000  0.30436000  1.0 -0.282614626
N  N19  1  0.69605000  0.60490000  0.69605000  1.0 -0.4086561552
N  N20  1  0.60490000  0.69605000  0.69605000  1.0 -0.4086561552
N  N21  1  0.69605000  0.69605000  0.60490000  1.0 -0.4086561552
N  N22  1  0.39510000  0.30395000  0.30395000  1.0 -0.4086561552
N  N23  1  0.30395000  0.39510000  0.30395000  1.0 -0.4086561552
N  N24  1  0.30395000  0.30395000  0.39510000  1.0 -0.4086561552
