# DDEC6 charges by PACMAN v1.1 (https://github.com/mtap-research/PACMAN-charge/)
data_YOZMIL_FSR_pacman
_symmetry_space_group_name_H-M   'P 1'
_cell_length_a   18.60740000
_cell_length_b   18.60740000
_cell_length_c   18.60740000
_cell_angle_alpha   60.00000000
_cell_angle_beta   60.00000000
_cell_angle_gamma   60.00000000
_symmetry_Int_Tables_number   1
_chemical_formula_structural   CuH2C12O5
_chemical_formula_sum   'Cu12 H24 C144 O60'
_cell_volume   4555.56327518
_cell_formula_units_Z   12
loop_
 _symmetry_equiv_pos_site_id
 _symmetry_equiv_pos_as_xyz
  1  'x, y, z'
loop_
 _atom_site_type_symbol
 _atom_site_label
 _atom_site_symmetry_multiplicity
 _atom_site_fract_x
 _atom_site_fract_y
 _atom_site_fract_z
 _atom_site_occupancy
 _atom_site_charge
Cu  Cu1  1  0.00000000  0.00000000  0.56984000  1.0 0.8436865217
Cu  Cu2  1  0.56984000  0.43016000  0.00000000  1.0 0.8436865217
Cu  Cu3  1  0.00000000  0.00000000  0.43016000  1.0 0.8436865217
Cu  Cu4  1  0.43016000  0.56984000  0.00000000  1.0 0.8436865217
Cu  Cu5  1  0.00000000  0.56984000  0.00000000  1.0 0.8436865217
Cu  Cu6  1  0.43016000  0.00000000  0.56984000  1.0 0.8436865217
Cu  Cu7  1  0.00000000  0.43016000  0.56984000  1.0 0.8436865217
Cu  Cu8  1  0.56984000  0.00000000  0.00000000  1.0 0.8436865217
Cu  Cu9  1  0.56984000  0.00000000  0.43016000  1.0 0.8436865217
Cu  Cu10  1  0.43016000  0.00000000  0.00000000  1.0 0.8436865217
Cu  Cu11  1  0.00000000  0.43016000  0.00000000  1.0 0.8436865217
Cu  Cu12  1  0.00000000  0.56984000  0.43016000  1.0 0.8436865217
H  H1  1  0.27180000  0.96920000  0.27180000  1.0 0.1206386934
H  H2  1  0.51280000  0.72820000  0.72820000  1.0 0.1206386934
H  H3  1  0.96920000  0.27180000  0.48720000  1.0 0.1206386934
H  H4  1  0.72820000  0.51280000  0.03080000  1.0 0.1206386934
H  H5  1  0.03080000  0.51280000  0.72820000  1.0 0.1206386934
H  H6  1  0.48720000  0.27180000  0.96920000  1.0 0.1206386934
H  H7  1  0.72820000  0.72820000  0.51280000  1.0 0.1206386934
H  H8  1  0.03080000  0.72820000  0.51280000  1.0 0.1206386934
H  H9  1  0.27180000  0.48720000  0.27180000  1.0 0.1206386934
H  H10  1  0.51280000  0.72820000  0.03080000  1.0 0.1206386934
H  H11  1  0.27180000  0.27180000  0.96920000  1.0 0.1206386934
H  H12  1  0.96920000  0.27180000  0.27180000  1.0 0.1206386934
H  H13  1  0.27180000  0.96920000  0.48720000  1.0 0.1206386934
H  H14  1  0.48720000  0.96920000  0.27180000  1.0 0.1206386934
H  H15  1  0.27180000  0.48720000  0.96920000  1.0 0.1206386934
H  H16  1  0.27180000  0.27180000  0.48720000  1.0 0.1206386934
H  H17  1  0.96920000  0.48720000  0.27180000  1.0 0.1206386934
H  H18  1  0.48720000  0.27180000  0.27180000  1.0 0.1206386934
H  H19  1  0.72820000  0.03080000  0.51280000  1.0 0.1206386934
H  H20  1  0.03080000  0.72820000  0.72820000  1.0 0.1206386934
H  H21  1  0.51280000  0.03080000  0.72820000  1.0 0.1206386934
H  H22  1  0.72820000  0.72820000  0.03080000  1.0 0.1206386934
H  H23  1  0.72820000  0.51280000  0.72820000  1.0 0.1206386934
H  H24  1  0.72820000  0.03080000  0.72820000  1.0 0.1206386934
C  C1  1  0.25747000  0.96911000  0.38671000  1.0 -0.0223473556
C  C2  1  0.61329000  0.61329000  0.74253000  1.0 -0.0223473556
C  C3  1  0.96911000  0.25747000  0.38671000  1.0 -0.0223473556
C  C4  1  0.61329000  0.61329000  0.03089000  1.0 -0.0223473556
C  C5  1  0.03089000  0.61329000  0.74253000  1.0 -0.0223473556
C  C6  1  0.38671000  0.38671000  0.96911000  1.0 -0.0223473556
C  C7  1  0.61329000  0.74253000  0.61329000  1.0 -0.0223473556
C  C8  1  0.03089000  0.61329000  0.61329000  1.0 -0.0223473556
C  C9  1  0.38671000  0.38671000  0.25747000  1.0 -0.0223473556
C  C10  1  0.61329000  0.74253000  0.03089000  1.0 -0.0223473556
C  C11  1  0.38671000  0.25747000  0.96911000  1.0 -0.0223473556
C  C12  1  0.96911000  0.38671000  0.25747000  1.0 -0.0223473556
C  C13  1  0.38671000  0.96911000  0.38671000  1.0 -0.0223473556
C  C14  1  0.38671000  0.96911000  0.25747000  1.0 -0.0223473556
C  C15  1  0.25747000  0.38671000  0.96911000  1.0 -0.0223473556
C  C16  1  0.25747000  0.38671000  0.38671000  1.0 -0.0223473556
C  C17  1  0.96911000  0.38671000  0.38671000  1.0 -0.0223473556
C  C18  1  0.38671000  0.25747000  0.38671000  1.0 -0.0223473556
C  C19  1  0.74253000  0.03089000  0.61329000  1.0 -0.0223473556
C  C20  1  0.03089000  0.74253000  0.61329000  1.0 -0.0223473556
C  C21  1  0.61329000  0.03089000  0.61329000  1.0 -0.0223473556
C  C22  1  0.74253000  0.61329000  0.03089000  1.0 -0.0223473556
C  C23  1  0.74253000  0.61329000  0.61329000  1.0 -0.0223473556
C  C24  1  0.61329000  0.03089000  0.74253000  1.0 -0.0223473556
C  C25  1  0.16233000  0.97557000  0.43105000  1.0 0.5823086184
C  C26  1  0.56895000  0.56895000  0.83767000  1.0 0.5823086184
C  C27  1  0.97557000  0.16233000  0.43105000  1.0 0.5823086184
C  C28  1  0.56895000  0.56895000  0.02443000  1.0 0.5823086184
C  C29  1  0.02443000  0.56895000  0.83767000  1.0 0.5823086184
C  C30  1  0.43105000  0.43105000  0.97557000  1.0 0.5823086184
C  C31  1  0.56895000  0.83767000  0.56895000  1.0 0.5823086184
C  C32  1  0.02443000  0.56895000  0.56895000  1.0 0.5823086184
C  C33  1  0.43105000  0.43105000  0.16233000  1.0 0.5823086184
C  C34  1  0.56895000  0.83767000  0.02443000  1.0 0.5823086184
C  C35  1  0.43105000  0.16233000  0.97557000  1.0 0.5823086184
C  C36  1  0.97557000  0.43105000  0.16233000  1.0 0.5823086184
C  C37  1  0.43105000  0.97557000  0.43105000  1.0 0.5823086184
C  C38  1  0.43105000  0.97557000  0.16233000  1.0 0.5823086184
C  C39  1  0.16233000  0.43105000  0.97557000  1.0 0.5823086184
C  C40  1  0.16233000  0.43105000  0.43105000  1.0 0.5823086184
C  C41  1  0.97557000  0.43105000  0.43105000  1.0 0.5823086184
C  C42  1  0.43105000  0.16233000  0.43105000  1.0 0.5823086184
C  C43  1  0.83767000  0.02443000  0.56895000  1.0 0.5823086184
C  C44  1  0.02443000  0.83767000  0.56895000  1.0 0.5823086184
C  C45  1  0.56895000  0.02443000  0.56895000  1.0 0.5823086184
C  C46  1  0.83767000  0.56895000  0.02443000  1.0 0.5823086184
C  C47  1  0.83767000  0.56895000  0.56895000  1.0 0.5823086184
C  C48  1  0.56895000  0.02443000  0.83767000  1.0 0.5823086184
C  C49  1  0.30064000  0.96916000  0.30064000  1.0 -0.094771397
C  C50  1  0.57044000  0.69936000  0.69936000  1.0 -0.0959694419
C  C51  1  0.96916000  0.30064000  0.42956000  1.0 -0.0959694419
C  C52  1  0.69936000  0.57044000  0.03084000  1.0 -0.0959694419
C  C53  1  0.03084000  0.57044000  0.69936000  1.0 -0.094771397
C  C54  1  0.42956000  0.30064000  0.96916000  1.0 -0.0959694419
C  C55  1  0.69936000  0.69936000  0.57044000  1.0 -0.0959694419
C  C56  1  0.03084000  0.69936000  0.57044000  1.0 -0.094771397
C  C57  1  0.30064000  0.42956000  0.30064000  1.0 -0.0959694419
C  C58  1  0.57044000  0.69936000  0.03084000  1.0 -0.0959694419
C  C59  1  0.30064000  0.30064000  0.96916000  1.0 -0.0959694419
C  C60  1  0.96916000  0.30064000  0.30064000  1.0 -0.094771397
C  C61  1  0.30064000  0.96916000  0.42956000  1.0 -0.094771397
C  C62  1  0.42956000  0.96916000  0.30064000  1.0 -0.094771397
C  C63  1  0.30064000  0.42956000  0.96916000  1.0 -0.0959694419
C  C64  1  0.30064000  0.30064000  0.42956000  1.0 -0.0959694419
C  C65  1  0.96916000  0.42956000  0.30064000  1.0 -0.094771397
C  C66  1  0.42956000  0.30064000  0.30064000  1.0 -0.094771397
C  C67  1  0.69936000  0.03084000  0.57044000  1.0 -0.0959694419
C  C68  1  0.03084000  0.69936000  0.69936000  1.0 -0.094771397
C  C69  1  0.57044000  0.03084000  0.69936000  1.0 -0.0959694419
C  C70  1  0.69936000  0.69936000  0.03084000  1.0 -0.0959694419
C  C71  1  0.69936000  0.57044000  0.69936000  1.0 -0.0959694419
C  C72  1  0.69936000  0.03084000  0.69936000  1.0 -0.0959694419
C  C73  1  0.95680000  0.95680000  0.78220000  1.0 0.225790854
C  C74  1  0.69580000  0.21780000  0.04320000  1.0 0.225790854
C  C75  1  0.95680000  0.95680000  0.30420000  1.0 0.225790854
C  C76  1  0.21780000  0.69580000  0.04320000  1.0 0.225790854
C  C77  1  0.04320000  0.69580000  0.04320000  1.0 0.2244319575
C  C78  1  0.30420000  0.78220000  0.95680000  1.0 0.225790854
C  C79  1  0.21780000  0.04320000  0.69580000  1.0 0.225790854
C  C80  1  0.04320000  0.21780000  0.69580000  1.0 0.225790854
C  C81  1  0.78220000  0.30420000  0.95680000  1.0 0.225790854
C  C82  1  0.69580000  0.04320000  0.04320000  1.0 0.225790854
C  C83  1  0.78220000  0.95680000  0.95680000  1.0 0.225790854
C  C84  1  0.95680000  0.78220000  0.95680000  1.0 0.225790854
C  C85  1  0.78220000  0.95680000  0.30420000  1.0 0.225790854
C  C86  1  0.30420000  0.95680000  0.95680000  1.0 0.225790854
C  C87  1  0.95680000  0.30420000  0.95680000  1.0 0.225790854
C  C88  1  0.95680000  0.78220000  0.30420000  1.0 0.225790854
C  C89  1  0.95680000  0.30420000  0.78220000  1.0 0.225790854
C  C90  1  0.30420000  0.95680000  0.78220000  1.0 0.225790854
C  C91  1  0.04320000  0.04320000  0.69580000  1.0 0.225790854
C  C92  1  0.04320000  0.04320000  0.21780000  1.0 0.225790854
C  C93  1  0.69580000  0.04320000  0.21780000  1.0 0.225790854
C  C94  1  0.04320000  0.21780000  0.04320000  1.0 0.225790854
C  C95  1  0.04320000  0.69580000  0.21780000  1.0 0.225790854
C  C96  1  0.21780000  0.04320000  0.04320000  1.0 0.225790854
C  C97  1  0.85890000  0.99030000  0.80530000  1.0 -0.0223473556
C  C98  1  0.65450000  0.19470000  0.14110000  1.0 -0.0223473556
C  C99  1  0.99030000  0.85890000  0.34550000  1.0 -0.0223473556
C  C100  1  0.19470000  0.65450000  0.00970000  1.0 -0.0223473556
C  C101  1  0.00970000  0.65450000  0.14110000  1.0 -0.0223473556
C  C102  1  0.34550000  0.80530000  0.99030000  1.0 -0.0223473556
C  C103  1  0.19470000  0.14110000  0.65450000  1.0 -0.0223473556
C  C104  1  0.00970000  0.19470000  0.65450000  1.0 -0.0223473556
C  C105  1  0.80530000  0.34550000  0.85890000  1.0 -0.0223473556
C  C106  1  0.65450000  0.14110000  0.00970000  1.0 -0.0223473556
C  C107  1  0.80530000  0.85890000  0.99030000  1.0 -0.0223473556
C  C108  1  0.99030000  0.80530000  0.85890000  1.0 -0.0223473556
C  C109  1  0.80530000  0.99030000  0.34550000  1.0 -0.0223473556
C  C110  1  0.34550000  0.99030000  0.85890000  1.0 -0.0223473556
C  C111  1  0.85890000  0.34550000  0.99030000  1.0 -0.0223473556
C  C112  1  0.85890000  0.80530000  0.34550000  1.0 -0.0223473556
C  C113  1  0.99030000  0.34550000  0.80530000  1.0 -0.0223473556
C  C114  1  0.34550000  0.85890000  0.80530000  1.0 -0.0223473556
C  C115  1  0.14110000  0.00970000  0.65450000  1.0 -0.0223473556
C  C116  1  0.00970000  0.14110000  0.19470000  1.0 -0.0223473556
C  C117  1  0.65450000  0.00970000  0.19470000  1.0 -0.0223473556
C  C118  1  0.14110000  0.19470000  0.00970000  1.0 -0.0223473556
C  C119  1  0.14110000  0.65450000  0.19470000  1.0 -0.0223473556
C  C120  1  0.19470000  0.00970000  0.14110000  1.0 -0.0223473556
C  C121  1  0.14110000  0.00970000  0.19470000  1.0 -0.0223473556
C  C122  1  0.34550000  0.80530000  0.85890000  1.0 -0.0223473556
C  C123  1  0.00970000  0.14110000  0.65450000  1.0 -0.0223473556
C  C124  1  0.80530000  0.34550000  0.99030000  1.0 -0.0223473556
C  C125  1  0.99030000  0.34550000  0.85890000  1.0 -0.0223473556
C  C126  1  0.65450000  0.19470000  0.00970000  1.0 -0.0223473556
C  C127  1  0.80530000  0.85890000  0.34550000  1.0 -0.0223473556
C  C128  1  0.99030000  0.80530000  0.34550000  1.0 -0.0223473556
C  C129  1  0.19470000  0.65450000  0.14110000  1.0 -0.0223473556
C  C130  1  0.34550000  0.85890000  0.99030000  1.0 -0.0223473556
C  C131  1  0.19470000  0.14110000  0.00970000  1.0 -0.0223473556
C  C132  1  0.00970000  0.19470000  0.14110000  1.0 -0.0223473556
C  C133  1  0.19470000  0.00970000  0.65450000  1.0 -0.0223473556
C  C134  1  0.65450000  0.00970000  0.14110000  1.0 -0.0223473556
C  C135  1  0.14110000  0.65450000  0.00970000  1.0 -0.0223473556
C  C136  1  0.14110000  0.19470000  0.65450000  1.0 -0.0223473556
C  C137  1  0.00970000  0.65450000  0.19470000  1.0 -0.0223473556
C  C138  1  0.65450000  0.14110000  0.19470000  1.0 -0.0223473556
C  C139  1  0.85890000  0.99030000  0.34550000  1.0 -0.0223473556
C  C140  1  0.99030000  0.85890000  0.80530000  1.0 -0.0223473556
C  C141  1  0.34550000  0.99030000  0.80530000  1.0 -0.0223473556
C  C142  1  0.85890000  0.80530000  0.99030000  1.0 -0.0223473556
C  C143  1  0.85890000  0.34550000  0.80530000  1.0 -0.0223473556
C  C144  1  0.80530000  0.99030000  0.85890000  1.0 -0.0223473556
O  O1  1  0.12608000  0.97846000  0.50786000  1.0 -0.5175436629
O  O2  1  0.61240000  0.49214000  0.87392000  1.0 -0.5175436629
O  O3  1  0.97846000  0.12608000  0.38760000  1.0 -0.5175436629
O  O4  1  0.49214000  0.61240000  0.02154000  1.0 -0.5175436629
O  O5  1  0.02154000  0.61240000  0.87392000  1.0 -0.5175436629
O  O6  1  0.38760000  0.50786000  0.97846000  1.0 -0.5175436629
O  O7  1  0.49214000  0.87392000  0.61240000  1.0 -0.5175436629
O  O8  1  0.02154000  0.49214000  0.61240000  1.0 -0.5175436629
O  O9  1  0.50786000  0.38760000  0.12608000  1.0 -0.5175436629
O  O10  1  0.61240000  0.87392000  0.02154000  1.0 -0.5175436629
O  O11  1  0.50786000  0.12608000  0.97846000  1.0 -0.5175436629
O  O12  1  0.97846000  0.50786000  0.12608000  1.0 -0.5175436629
O  O13  1  0.50786000  0.97846000  0.38760000  1.0 -0.5175436629
O  O14  1  0.38760000  0.97846000  0.12608000  1.0 -0.5175436629
O  O15  1  0.12608000  0.38760000  0.97846000  1.0 -0.5175436629
O  O16  1  0.12608000  0.50786000  0.38760000  1.0 -0.5175436629
O  O17  1  0.97846000  0.38760000  0.50786000  1.0 -0.5175436629
O  O18  1  0.38760000  0.12608000  0.50786000  1.0 -0.5175436629
O  O19  1  0.87392000  0.02154000  0.61240000  1.0 -0.5175436629
O  O20  1  0.02154000  0.87392000  0.49214000  1.0 -0.5175436629
O  O21  1  0.61240000  0.02154000  0.49214000  1.0 -0.5175436629
O  O22  1  0.87392000  0.49214000  0.02154000  1.0 -0.5175436629
O  O23  1  0.87392000  0.61240000  0.49214000  1.0 -0.5175436629
O  O24  1  0.49214000  0.02154000  0.87392000  1.0 -0.5175436629
O  O25  1  0.87392000  0.02154000  0.49214000  1.0 -0.5175436629
O  O26  1  0.38760000  0.50786000  0.12608000  1.0 -0.5175436629
O  O27  1  0.02154000  0.87392000  0.61240000  1.0 -0.5175436629
O  O28  1  0.50786000  0.38760000  0.97846000  1.0 -0.5175436629
O  O29  1  0.97846000  0.38760000  0.12608000  1.0 -0.5175436629
O  O30  1  0.61240000  0.49214000  0.02154000  1.0 -0.5175436629
O  O31  1  0.50786000  0.12608000  0.38760000  1.0 -0.5175436629
O  O32  1  0.97846000  0.50786000  0.38760000  1.0 -0.5175436629
O  O33  1  0.49214000  0.61240000  0.87392000  1.0 -0.5175436629
O  O34  1  0.38760000  0.12608000  0.97846000  1.0 -0.5175436629
O  O35  1  0.49214000  0.87392000  0.02154000  1.0 -0.5175436629
O  O36  1  0.02154000  0.49214000  0.87392000  1.0 -0.5175436629
O  O37  1  0.49214000  0.02154000  0.61240000  1.0 -0.5175436629
O  O38  1  0.61240000  0.02154000  0.87392000  1.0 -0.5175436629
O  O39  1  0.87392000  0.61240000  0.02154000  1.0 -0.5175436629
O  O40  1  0.87392000  0.49214000  0.61240000  1.0 -0.5175436629
O  O41  1  0.02154000  0.61240000  0.49214000  1.0 -0.5175436629
O  O42  1  0.61240000  0.87392000  0.49214000  1.0 -0.5175436629
O  O43  1  0.12608000  0.97846000  0.38760000  1.0 -0.5175436629
O  O44  1  0.97846000  0.12608000  0.50786000  1.0 -0.5175436629
O  O45  1  0.38760000  0.97846000  0.50786000  1.0 -0.5175436629
O  O46  1  0.12608000  0.50786000  0.97846000  1.0 -0.5175436629
O  O47  1  0.12608000  0.38760000  0.50786000  1.0 -0.5175436629
O  O48  1  0.50786000  0.97846000  0.12608000  1.0 -0.5175436629
O  O49  1  0.00000000  0.00000000  0.68840000  1.0 -0.3082867968
O  O50  1  0.68840000  0.31160000  0.00000000  1.0 -0.3021996273
O  O51  1  0.00000000  0.00000000  0.31160000  1.0 -0.3082867968
O  O52  1  0.31160000  0.68840000  0.00000000  1.0 -0.3082867968
O  O53  1  0.00000000  0.68840000  0.00000000  1.0 -0.3082867968
O  O54  1  0.31160000  0.00000000  0.68840000  1.0 -0.3082867968
O  O55  1  0.00000000  0.31160000  0.68840000  1.0 -0.3082867968
O  O56  1  0.68840000  0.00000000  0.00000000  1.0 -0.3021996273
O  O57  1  0.68840000  0.00000000  0.31160000  1.0 -0.3021996273
O  O58  1  0.31160000  0.00000000  0.00000000  1.0 -0.3021996273
O  O59  1  0.00000000  0.31160000  0.00000000  1.0 -0.3021996273
O  O60  1  0.00000000  0.68840000  0.31160000  1.0 -0.3082867968
