# DDEC6 charges by PACMAN v1.1 (https://github.com/mtap-research/PACMAN-charge/)
data_YOZMEH_FSR_pacman
_symmetry_space_group_name_H-M   'P 1'
_cell_length_a   18.60850000
_cell_length_b   18.60850000
_cell_length_c   18.60850000
_cell_angle_alpha   60.00000000
_cell_angle_beta   60.00000000
_cell_angle_gamma   60.00000000
_symmetry_Int_Tables_number   1
_chemical_formula_structural   CuH2C18O5
_chemical_formula_sum   'Cu12 H24 C216 O60'
_cell_volume   4556.37124661
_cell_formula_units_Z   12
loop_
 _symmetry_equiv_pos_site_id
 _symmetry_equiv_pos_as_xyz
  1  'x, y, z'
loop_
 _atom_site_type_symbol
 _atom_site_label
 _atom_site_symmetry_multiplicity
 _atom_site_fract_x
 _atom_site_fract_y
 _atom_site_fract_z
 _atom_site_occupancy
 _atom_site_charge
Cu  Cu1  1  0.00000000  0.00000000  0.56984000  1.0 0.8518038969
Cu  Cu2  1  0.56984000  0.43016000  0.00000000  1.0 0.8518038969
Cu  Cu3  1  0.00000000  0.00000000  0.43016000  1.0 0.8569030095
Cu  Cu4  1  0.43016000  0.56984000  0.00000000  1.0 0.8518038969
Cu  Cu5  1  0.00000000  0.56984000  0.00000000  1.0 0.8518038969
Cu  Cu6  1  0.43016000  0.00000000  0.56984000  1.0 0.8569030095
Cu  Cu7  1  0.00000000  0.43016000  0.56984000  1.0 0.8518038969
Cu  Cu8  1  0.56984000  0.00000000  0.00000000  1.0 0.8569030095
Cu  Cu9  1  0.56984000  0.00000000  0.43016000  1.0 0.8569030095
Cu  Cu10  1  0.43016000  0.00000000  0.00000000  1.0 0.8569030095
Cu  Cu11  1  0.00000000  0.43016000  0.00000000  1.0 0.8518038969
Cu  Cu12  1  0.00000000  0.56984000  0.43016000  1.0 0.8518038969
H  H1  1  0.27260000  0.96700000  0.27260000  1.0 0.1424298594
H  H2  1  0.51220000  0.72740000  0.72740000  1.0 0.1424298594
H  H3  1  0.96700000  0.27260000  0.48780000  1.0 0.1424298594
H  H4  1  0.72740000  0.51220000  0.03300000  1.0 0.1424298594
H  H5  1  0.03300000  0.51220000  0.72740000  1.0 0.1424298594
H  H6  1  0.48780000  0.27260000  0.96700000  1.0 0.1424298594
H  H7  1  0.72740000  0.72740000  0.51220000  1.0 0.1424298594
H  H8  1  0.03300000  0.72740000  0.51220000  1.0 0.1424298594
H  H9  1  0.27260000  0.48780000  0.27260000  1.0 0.1424298594
H  H10  1  0.51220000  0.72740000  0.03300000  1.0 0.1424298594
H  H11  1  0.27260000  0.27260000  0.96700000  1.0 0.1424298594
H  H12  1  0.96700000  0.27260000  0.27260000  1.0 0.1424298594
H  H13  1  0.27260000  0.96700000  0.48780000  1.0 0.1424298594
H  H14  1  0.48780000  0.96700000  0.27260000  1.0 0.1424298594
H  H15  1  0.27260000  0.48780000  0.96700000  1.0 0.1424298594
H  H16  1  0.27260000  0.27260000  0.48780000  1.0 0.1424298594
H  H17  1  0.96700000  0.48780000  0.27260000  1.0 0.1424298594
H  H18  1  0.48780000  0.27260000  0.27260000  1.0 0.1424298594
H  H19  1  0.72740000  0.03300000  0.51220000  1.0 0.1424298594
H  H20  1  0.03300000  0.72740000  0.72740000  1.0 0.1424298594
H  H21  1  0.51220000  0.03300000  0.72740000  1.0 0.1424298594
H  H22  1  0.72740000  0.72740000  0.03300000  1.0 0.1424298594
H  H23  1  0.72740000  0.51220000  0.72740000  1.0 0.1424298594
H  H24  1  0.72740000  0.03300000  0.72740000  1.0 0.1424298594
C  C1  1  0.25781000  0.96805000  0.38707000  1.0 0.02929607
C  C2  1  0.61293000  0.61293000  0.74219000  1.0 0.02929607
C  C3  1  0.96805000  0.25781000  0.38707000  1.0 0.02929607
C  C4  1  0.61293000  0.61293000  0.03195000  1.0 0.02929607
C  C5  1  0.03195000  0.61293000  0.74219000  1.0 0.02929607
C  C6  1  0.38707000  0.38707000  0.96805000  1.0 0.02929607
C  C7  1  0.61293000  0.74219000  0.61293000  1.0 0.02929607
C  C8  1  0.03195000  0.61293000  0.61293000  1.0 0.02929607
C  C9  1  0.38707000  0.38707000  0.25781000  1.0 0.02929607
C  C10  1  0.61293000  0.74219000  0.03195000  1.0 0.02929607
C  C11  1  0.38707000  0.25781000  0.96805000  1.0 0.02929607
C  C12  1  0.96805000  0.38707000  0.25781000  1.0 0.02929607
C  C13  1  0.38707000  0.96805000  0.38707000  1.0 0.02929607
C  C14  1  0.38707000  0.96805000  0.25781000  1.0 0.02929607
C  C15  1  0.25781000  0.38707000  0.96805000  1.0 0.02929607
C  C16  1  0.25781000  0.38707000  0.38707000  1.0 0.02929607
C  C17  1  0.96805000  0.38707000  0.38707000  1.0 0.02929607
C  C18  1  0.38707000  0.25781000  0.38707000  1.0 0.02929607
C  C19  1  0.74219000  0.03195000  0.61293000  1.0 0.02929607
C  C20  1  0.03195000  0.74219000  0.61293000  1.0 0.02929607
C  C21  1  0.61293000  0.03195000  0.61293000  1.0 0.02929607
C  C22  1  0.74219000  0.61293000  0.03195000  1.0 0.02929607
C  C23  1  0.74219000  0.61293000  0.61293000  1.0 0.02929607
C  C24  1  0.61293000  0.03195000  0.74219000  1.0 0.02929607
C  C25  1  0.16270000  0.97482000  0.43124000  1.0 0.5034675955
C  C26  1  0.56876000  0.56876000  0.83730000  1.0 0.5034675955
C  C27  1  0.97482000  0.16270000  0.43124000  1.0 0.5034675955
C  C28  1  0.56876000  0.56876000  0.02518000  1.0 0.5034675955
C  C29  1  0.02518000  0.56876000  0.83730000  1.0 0.5034675955
C  C30  1  0.43124000  0.43124000  0.97482000  1.0 0.5034675955
C  C31  1  0.56876000  0.83730000  0.56876000  1.0 0.5034675955
C  C32  1  0.02518000  0.56876000  0.56876000  1.0 0.5034675955
C  C33  1  0.43124000  0.43124000  0.16270000  1.0 0.5034675955
C  C34  1  0.56876000  0.83730000  0.02518000  1.0 0.5034675955
C  C35  1  0.43124000  0.16270000  0.97482000  1.0 0.5034675955
C  C36  1  0.97482000  0.43124000  0.16270000  1.0 0.5034675955
C  C37  1  0.43124000  0.97482000  0.43124000  1.0 0.5034675955
C  C38  1  0.43124000  0.97482000  0.16270000  1.0 0.5034675955
C  C39  1  0.16270000  0.43124000  0.97482000  1.0 0.5034675955
C  C40  1  0.16270000  0.43124000  0.43124000  1.0 0.5034675955
C  C41  1  0.97482000  0.43124000  0.43124000  1.0 0.5034675955
C  C42  1  0.43124000  0.16270000  0.43124000  1.0 0.5034675955
C  C43  1  0.83730000  0.02518000  0.56876000  1.0 0.5034675955
C  C44  1  0.02518000  0.83730000  0.56876000  1.0 0.5034675955
C  C45  1  0.56876000  0.02518000  0.56876000  1.0 0.5034675955
C  C46  1  0.83730000  0.56876000  0.02518000  1.0 0.5034675955
C  C47  1  0.83730000  0.56876000  0.56876000  1.0 0.5034675955
C  C48  1  0.56876000  0.02518000  0.83730000  1.0 0.5034675955
C  C49  1  0.30123000  0.96763000  0.30123000  1.0 -0.0740174826
C  C50  1  0.57009000  0.69877000  0.69877000  1.0 -0.0740174826
C  C51  1  0.96763000  0.30123000  0.42991000  1.0 -0.0740174826
C  C52  1  0.69877000  0.57009000  0.03237000  1.0 -0.0740174826
C  C53  1  0.03237000  0.57009000  0.69877000  1.0 -0.0740174826
C  C54  1  0.42991000  0.30123000  0.96763000  1.0 -0.0740174826
C  C55  1  0.69877000  0.69877000  0.57009000  1.0 -0.0755846338
C  C56  1  0.03237000  0.69877000  0.57009000  1.0 -0.0755846338
C  C57  1  0.30123000  0.42991000  0.30123000  1.0 -0.0755846338
C  C58  1  0.57009000  0.69877000  0.03237000  1.0 -0.0740174826
C  C59  1  0.30123000  0.30123000  0.96763000  1.0 -0.0755846338
C  C60  1  0.96763000  0.30123000  0.30123000  1.0 -0.0740174826
C  C61  1  0.30123000  0.96763000  0.42991000  1.0 -0.0740174826
C  C62  1  0.42991000  0.96763000  0.30123000  1.0 -0.0740174826
C  C63  1  0.30123000  0.42991000  0.96763000  1.0 -0.0740174826
C  C64  1  0.30123000  0.30123000  0.42991000  1.0 -0.0740174826
C  C65  1  0.96763000  0.42991000  0.30123000  1.0 -0.0755846338
C  C66  1  0.42991000  0.30123000  0.30123000  1.0 -0.0755846338
C  C67  1  0.69877000  0.03237000  0.57009000  1.0 -0.0755846338
C  C68  1  0.03237000  0.69877000  0.69877000  1.0 -0.0755846338
C  C69  1  0.57009000  0.03237000  0.69877000  1.0 -0.0740174826
C  C70  1  0.69877000  0.69877000  0.03237000  1.0 -0.0755846338
C  C71  1  0.69877000  0.57009000  0.69877000  1.0 -0.0740174826
C  C72  1  0.69877000  0.03237000  0.69877000  1.0 -0.0740174826
C  C73  1  0.93340000  0.98880000  0.78460000  1.0 0.0103201623
C  C74  1  0.70680000  0.21540000  0.06660000  1.0 0.0103201623
C  C75  1  0.98880000  0.93340000  0.29320000  1.0 0.0103201623
C  C76  1  0.21540000  0.70680000  0.01120000  1.0 0.0103201623
C  C77  1  0.01120000  0.70680000  0.06660000  1.0 0.0103201623
C  C78  1  0.29320000  0.78460000  0.98880000  1.0 0.0103201623
C  C79  1  0.21540000  0.06660000  0.70680000  1.0 0.0103201623
C  C80  1  0.01120000  0.21540000  0.70680000  1.0 0.0103201623
C  C81  1  0.78460000  0.29320000  0.93340000  1.0 0.0103201623
C  C82  1  0.70680000  0.06660000  0.01120000  1.0 0.0103201623
C  C83  1  0.78460000  0.93340000  0.98880000  1.0 0.0103201623
C  C84  1  0.98880000  0.78460000  0.93340000  1.0 0.0103201623
C  C85  1  0.78460000  0.98880000  0.29320000  1.0 0.0103201623
C  C86  1  0.29320000  0.98880000  0.93340000  1.0 0.0103201623
C  C87  1  0.93340000  0.29320000  0.98880000  1.0 0.0103201623
C  C88  1  0.93340000  0.78460000  0.29320000  1.0 0.0103201623
C  C89  1  0.98880000  0.29320000  0.78460000  1.0 0.0103201623
C  C90  1  0.29320000  0.93340000  0.78460000  1.0 0.0103201623
C  C91  1  0.06660000  0.01120000  0.70680000  1.0 0.0103201623
C  C92  1  0.01120000  0.06660000  0.21540000  1.0 0.0103201623
C  C93  1  0.70680000  0.01120000  0.21540000  1.0 0.0103201623
C  C94  1  0.06660000  0.21540000  0.01120000  1.0 0.0103201623
C  C95  1  0.06660000  0.70680000  0.21540000  1.0 0.0103201623
C  C96  1  0.21540000  0.01120000  0.06660000  1.0 0.0103201623
C  C97  1  0.06660000  0.01120000  0.21540000  1.0 0.0103201623
C  C98  1  0.29320000  0.78460000  0.93340000  1.0 0.0103201623
C  C99  1  0.01120000  0.06660000  0.70680000  1.0 0.0103201623
C  C100  1  0.78460000  0.29320000  0.98880000  1.0 0.0103201623
C  C101  1  0.98880000  0.29320000  0.93340000  1.0 0.0103201623
C  C102  1  0.70680000  0.21540000  0.01120000  1.0 0.0103201623
C  C103  1  0.78460000  0.93340000  0.29320000  1.0 0.0103201623
C  C104  1  0.98880000  0.78460000  0.29320000  1.0 0.0103201623
C  C105  1  0.21540000  0.70680000  0.06660000  1.0 0.0103201623
C  C106  1  0.29320000  0.93340000  0.98880000  1.0 0.0103201623
C  C107  1  0.21540000  0.06660000  0.01120000  1.0 0.0103201623
C  C108  1  0.01120000  0.21540000  0.06660000  1.0 0.0103201623
C  C109  1  0.21540000  0.01120000  0.70680000  1.0 0.0103201623
C  C110  1  0.70680000  0.01120000  0.06660000  1.0 0.0103201623
C  C111  1  0.06660000  0.70680000  0.01120000  1.0 0.0103201623
C  C112  1  0.06660000  0.21540000  0.70680000  1.0 0.0103201623
C  C113  1  0.01120000  0.70680000  0.21540000  1.0 0.0103201623
C  C114  1  0.70680000  0.06660000  0.21540000  1.0 0.0103201623
C  C115  1  0.93340000  0.98880000  0.29320000  1.0 0.0103201623
C  C116  1  0.98880000  0.93340000  0.78460000  1.0 0.0103201623
C  C117  1  0.29320000  0.98880000  0.78460000  1.0 0.0103201623
C  C118  1  0.93340000  0.78460000  0.98880000  1.0 0.0103201623
C  C119  1  0.93340000  0.29320000  0.78460000  1.0 0.0103201623
C  C120  1  0.78460000  0.98880000  0.93340000  1.0 0.0103201623
C  C121  1  0.92740000  0.89940000  0.82060000  1.0 0.0558437389
C  C122  1  0.64740000  0.17940000  0.07260000  1.0 0.0558437389
C  C123  1  0.89940000  0.92740000  0.35260000  1.0 0.0558437389
C  C124  1  0.17940000  0.64740000  0.10060000  1.0 0.0558437389
C  C125  1  0.10060000  0.64740000  0.07260000  1.0 0.0558437389
C  C126  1  0.35260000  0.82060000  0.89940000  1.0 0.0558437389
C  C127  1  0.17940000  0.07260000  0.64740000  1.0 0.0558437389
C  C128  1  0.10060000  0.17940000  0.64740000  1.0 0.0558437389
C  C129  1  0.82060000  0.35260000  0.92740000  1.0 0.0558437389
C  C130  1  0.64740000  0.07260000  0.10060000  1.0 0.0558437389
C  C131  1  0.82060000  0.92740000  0.89940000  1.0 0.0558437389
C  C132  1  0.89940000  0.82060000  0.92740000  1.0 0.0558437389
C  C133  1  0.82060000  0.89940000  0.35260000  1.0 0.0558437389
C  C134  1  0.35260000  0.89940000  0.92740000  1.0 0.0558437389
C  C135  1  0.92740000  0.35260000  0.89940000  1.0 0.0558437389
C  C136  1  0.92740000  0.82060000  0.35260000  1.0 0.0558437389
C  C137  1  0.89940000  0.35260000  0.82060000  1.0 0.0558437389
C  C138  1  0.35260000  0.92740000  0.82060000  1.0 0.0558437389
C  C139  1  0.07260000  0.10060000  0.64740000  1.0 0.0558437389
C  C140  1  0.10060000  0.07260000  0.17940000  1.0 0.0558437389
C  C141  1  0.64740000  0.10060000  0.17940000  1.0 0.0558437389
C  C142  1  0.07260000  0.17940000  0.10060000  1.0 0.0558437389
C  C143  1  0.07260000  0.64740000  0.17940000  1.0 0.0558437389
C  C144  1  0.17940000  0.10060000  0.07260000  1.0 0.0558437389
C  C145  1  0.07260000  0.10060000  0.17940000  1.0 0.0558437389
C  C146  1  0.35260000  0.82060000  0.92740000  1.0 0.0558437389
C  C147  1  0.10060000  0.07260000  0.64740000  1.0 0.0558437389
C  C148  1  0.82060000  0.35260000  0.89940000  1.0 0.0558437389
C  C149  1  0.89940000  0.35260000  0.92740000  1.0 0.0558437389
C  C150  1  0.64740000  0.17940000  0.10060000  1.0 0.0558437389
C  C151  1  0.82060000  0.92740000  0.35260000  1.0 0.0558437389
C  C152  1  0.89940000  0.82060000  0.35260000  1.0 0.0558437389
C  C153  1  0.17940000  0.64740000  0.07260000  1.0 0.0558437389
C  C154  1  0.35260000  0.92740000  0.89940000  1.0 0.0558437389
C  C155  1  0.17940000  0.07260000  0.10060000  1.0 0.0558437389
C  C156  1  0.10060000  0.17940000  0.07260000  1.0 0.0558437389
C  C157  1  0.17940000  0.10060000  0.64740000  1.0 0.0558437389
C  C158  1  0.64740000  0.10060000  0.07260000  1.0 0.0558437389
C  C159  1  0.07260000  0.64740000  0.10060000  1.0 0.0558437389
C  C160  1  0.07260000  0.17940000  0.64740000  1.0 0.0558437389
C  C161  1  0.10060000  0.64740000  0.17940000  1.0 0.0558437389
C  C162  1  0.64740000  0.07260000  0.17940000  1.0 0.0558437389
C  C163  1  0.92740000  0.89940000  0.35260000  1.0 0.0558437389
C  C164  1  0.89940000  0.92740000  0.82060000  1.0 0.0558437389
C  C165  1  0.35260000  0.89940000  0.82060000  1.0 0.0558437389
C  C166  1  0.92740000  0.82060000  0.89940000  1.0 0.0558437389
C  C167  1  0.92740000  0.35260000  0.82060000  1.0 0.0558437389
C  C168  1  0.82060000  0.89940000  0.92740000  1.0 0.0558437389
C  C169  1  0.83340000  0.90540000  0.85460000  1.0 -0.0583150134
C  C170  1  0.59340000  0.14540000  0.16660000  1.0 -0.0583150134
C  C171  1  0.90540000  0.83340000  0.40660000  1.0 -0.0583150134
C  C172  1  0.14540000  0.59340000  0.09460000  1.0 -0.0583150134
C  C173  1  0.09460000  0.59340000  0.16660000  1.0 -0.0583150134
C  C174  1  0.40660000  0.85460000  0.90540000  1.0 -0.0583150134
C  C175  1  0.14540000  0.16660000  0.59340000  1.0 -0.0583150134
C  C176  1  0.09460000  0.14540000  0.59340000  1.0 -0.0583150134
C  C177  1  0.85460000  0.40660000  0.83340000  1.0 -0.0583150134
C  C178  1  0.59340000  0.16660000  0.09460000  1.0 -0.0583150134
C  C179  1  0.85460000  0.83340000  0.90540000  1.0 -0.0583150134
C  C180  1  0.90540000  0.85460000  0.83340000  1.0 -0.0583150134
C  C181  1  0.85460000  0.90540000  0.40660000  1.0 -0.0583150134
C  C182  1  0.40660000  0.90540000  0.83340000  1.0 -0.0583150134
C  C183  1  0.83340000  0.40660000  0.90540000  1.0 -0.0583150134
C  C184  1  0.83340000  0.85460000  0.40660000  1.0 -0.0583150134
C  C185  1  0.90540000  0.40660000  0.85460000  1.0 -0.0583150134
C  C186  1  0.40660000  0.83340000  0.85460000  1.0 -0.0583150134
C  C187  1  0.16660000  0.09460000  0.59340000  1.0 -0.0583150134
C  C188  1  0.09460000  0.16660000  0.14540000  1.0 -0.0583150134
C  C189  1  0.59340000  0.09460000  0.14540000  1.0 -0.0583150134
C  C190  1  0.16660000  0.14540000  0.09460000  1.0 -0.0583150134
C  C191  1  0.16660000  0.59340000  0.14540000  1.0 -0.0583150134
C  C192  1  0.14540000  0.09460000  0.16660000  1.0 -0.0583150134
C  C193  1  0.16660000  0.09460000  0.14540000  1.0 -0.0583150134
C  C194  1  0.40660000  0.85460000  0.83340000  1.0 -0.0583150134
C  C195  1  0.09460000  0.16660000  0.59340000  1.0 -0.0583150134
C  C196  1  0.85460000  0.40660000  0.90540000  1.0 -0.0583150134
C  C197  1  0.90540000  0.40660000  0.83340000  1.0 -0.0583150134
C  C198  1  0.59340000  0.14540000  0.09460000  1.0 -0.0583150134
C  C199  1  0.85460000  0.83340000  0.40660000  1.0 -0.0583150134
C  C200  1  0.90540000  0.85460000  0.40660000  1.0 -0.0583150134
C  C201  1  0.14540000  0.59340000  0.16660000  1.0 -0.0583150134
C  C202  1  0.40660000  0.83340000  0.90540000  1.0 -0.0583150134
C  C203  1  0.14540000  0.16660000  0.09460000  1.0 -0.0583150134
C  C204  1  0.09460000  0.14540000  0.16660000  1.0 -0.0583150134
C  C205  1  0.14540000  0.09460000  0.59340000  1.0 -0.0583150134
C  C206  1  0.59340000  0.09460000  0.16660000  1.0 -0.0583150134
C  C207  1  0.16660000  0.59340000  0.09460000  1.0 -0.0583150134
C  C208  1  0.16660000  0.14540000  0.59340000  1.0 -0.0583150134
C  C209  1  0.09460000  0.59340000  0.14540000  1.0 -0.0583150134
C  C210  1  0.59340000  0.16660000  0.14540000  1.0 -0.0583150134
C  C211  1  0.83340000  0.90540000  0.40660000  1.0 -0.0583150134
C  C212  1  0.90540000  0.83340000  0.85460000  1.0 -0.0583150134
C  C213  1  0.40660000  0.90540000  0.85460000  1.0 -0.0583150134
C  C214  1  0.83340000  0.85460000  0.90540000  1.0 -0.0583150134
C  C215  1  0.83340000  0.40660000  0.85460000  1.0 -0.0583150134
C  C216  1  0.85460000  0.90540000  0.83340000  1.0 -0.0583150134
O  O1  1  0.12617000  0.97859000  0.50783000  1.0 -0.4885189052
O  O2  1  0.61259000  0.49217000  0.87383000  1.0 -0.4885189052
O  O3  1  0.97859000  0.12617000  0.38741000  1.0 -0.4885189052
O  O4  1  0.49217000  0.61259000  0.02141000  1.0 -0.4885189052
O  O5  1  0.02141000  0.61259000  0.87383000  1.0 -0.4885189052
O  O6  1  0.38741000  0.50783000  0.97859000  1.0 -0.4885189052
O  O7  1  0.49217000  0.87383000  0.61259000  1.0 -0.4885189052
O  O8  1  0.02141000  0.49217000  0.61259000  1.0 -0.4885189052
O  O9  1  0.50783000  0.38741000  0.12617000  1.0 -0.4885189052
O  O10  1  0.61259000  0.87383000  0.02141000  1.0 -0.4885189052
O  O11  1  0.50783000  0.12617000  0.97859000  1.0 -0.4885189052
O  O12  1  0.97859000  0.50783000  0.12617000  1.0 -0.4885189052
O  O13  1  0.50783000  0.97859000  0.38741000  1.0 -0.4885189052
O  O14  1  0.38741000  0.97859000  0.12617000  1.0 -0.4885189052
O  O15  1  0.12617000  0.38741000  0.97859000  1.0 -0.4885189052
O  O16  1  0.12617000  0.50783000  0.38741000  1.0 -0.4885189052
O  O17  1  0.97859000  0.38741000  0.50783000  1.0 -0.4885189052
O  O18  1  0.38741000  0.12617000  0.50783000  1.0 -0.4885189052
O  O19  1  0.87383000  0.02141000  0.61259000  1.0 -0.4885189052
O  O20  1  0.02141000  0.87383000  0.49217000  1.0 -0.4885189052
O  O21  1  0.61259000  0.02141000  0.49217000  1.0 -0.4885189052
O  O22  1  0.87383000  0.49217000  0.02141000  1.0 -0.4885189052
O  O23  1  0.87383000  0.61259000  0.49217000  1.0 -0.4885189052
O  O24  1  0.49217000  0.02141000  0.87383000  1.0 -0.4885189052
O  O25  1  0.87383000  0.02141000  0.49217000  1.0 -0.4885189052
O  O26  1  0.38741000  0.50783000  0.12617000  1.0 -0.4885189052
O  O27  1  0.02141000  0.87383000  0.61259000  1.0 -0.4885189052
O  O28  1  0.50783000  0.38741000  0.97859000  1.0 -0.4885189052
O  O29  1  0.97859000  0.38741000  0.12617000  1.0 -0.4885189052
O  O30  1  0.61259000  0.49217000  0.02141000  1.0 -0.4885189052
O  O31  1  0.50783000  0.12617000  0.38741000  1.0 -0.4885189052
O  O32  1  0.97859000  0.50783000  0.38741000  1.0 -0.4885189052
O  O33  1  0.49217000  0.61259000  0.87383000  1.0 -0.4885189052
O  O34  1  0.38741000  0.12617000  0.97859000  1.0 -0.4885189052
O  O35  1  0.49217000  0.87383000  0.02141000  1.0 -0.4885189052
O  O36  1  0.02141000  0.49217000  0.87383000  1.0 -0.4885189052
O  O37  1  0.49217000  0.02141000  0.61259000  1.0 -0.4885189052
O  O38  1  0.61259000  0.02141000  0.87383000  1.0 -0.4885189052
O  O39  1  0.87383000  0.61259000  0.02141000  1.0 -0.4885189052
O  O40  1  0.87383000  0.49217000  0.61259000  1.0 -0.4885189052
O  O41  1  0.02141000  0.61259000  0.49217000  1.0 -0.4885189052
O  O42  1  0.61259000  0.87383000  0.49217000  1.0 -0.4885189052
O  O43  1  0.12617000  0.97859000  0.38741000  1.0 -0.4885189052
O  O44  1  0.97859000  0.12617000  0.50783000  1.0 -0.4885189052
O  O45  1  0.38741000  0.97859000  0.50783000  1.0 -0.4885189052
O  O46  1  0.12617000  0.50783000  0.97859000  1.0 -0.4885189052
O  O47  1  0.12617000  0.38741000  0.50783000  1.0 -0.4885189052
O  O48  1  0.50783000  0.97859000  0.12617000  1.0 -0.4885189052
O  O49  1  0.00000000  0.00000000  0.68730000  1.0 -0.1321526881
O  O50  1  0.68730000  0.31270000  0.00000000  1.0 -0.1321526881
O  O51  1  0.00000000  0.00000000  0.31270000  1.0 -0.1321526881
O  O52  1  0.31270000  0.68730000  0.00000000  1.0 -0.1321526881
O  O53  1  0.00000000  0.68730000  0.00000000  1.0 -0.1321526881
O  O54  1  0.31270000  0.00000000  0.68730000  1.0 -0.1321526881
O  O55  1  0.00000000  0.31270000  0.68730000  1.0 -0.1321526881
O  O56  1  0.68730000  0.00000000  0.00000000  1.0 -0.1321526881
O  O57  1  0.68730000  0.00000000  0.31270000  1.0 -0.1321526881
O  O58  1  0.31270000  0.00000000  0.00000000  1.0 -0.1321526881
O  O59  1  0.00000000  0.31270000  0.00000000  1.0 -0.1321526881
O  O60  1  0.00000000  0.68730000  0.31270000  1.0 -0.1354225765
