# DDEC6 charges by PACMAN v1.1 (https://github.com/mtap-research/PACMAN-charge/)
data_YOZNAE01_ASR_pacman
_symmetry_space_group_name_H-M   'P 1'
_cell_length_a   18.57920000
_cell_length_b   18.57920000
_cell_length_c   18.57920000
_cell_angle_alpha   60.00000000
_cell_angle_beta   60.00000000
_cell_angle_gamma   60.00000000
_symmetry_Int_Tables_number   1
_chemical_formula_structural   CuH2(C3O2)2
_chemical_formula_sum   'Cu12 H24 C72 O48'
_cell_volume   4534.88242437
_cell_formula_units_Z   12
loop_
 _symmetry_equiv_pos_site_id
 _symmetry_equiv_pos_as_xyz
  1  'x, y, z'
loop_
 _atom_site_type_symbol
 _atom_site_label
 _atom_site_symmetry_multiplicity
 _atom_site_fract_x
 _atom_site_fract_y
 _atom_site_fract_z
 _atom_site_occupancy
 _atom_site_charge
Cu  Cu1  1  0.43258000  0.00000000  0.56742000  1.0 0.8364067871
Cu  Cu2  1  0.56742000  0.00000000  0.43258000  1.0 0.8364067871
Cu  Cu3  1  0.00000000  0.43258000  0.00000000  1.0 0.8364067871
Cu  Cu4  1  0.00000000  0.56742000  0.00000000  1.0 0.8364067871
Cu  Cu5  1  0.00000000  0.56742000  0.43258000  1.0 0.8364067871
Cu  Cu6  1  0.00000000  0.43258000  0.56742000  1.0 0.8364067871
Cu  Cu7  1  0.43258000  0.00000000  0.00000000  1.0 0.8348922331
Cu  Cu8  1  0.56742000  0.00000000  0.00000000  1.0 0.8348922331
Cu  Cu9  1  0.56742000  0.43258000  0.00000000  1.0 0.8364067871
Cu  Cu10  1  0.43258000  0.56742000  0.00000000  1.0 0.8364067871
Cu  Cu11  1  0.00000000  0.00000000  0.43258000  1.0 0.8364067871
Cu  Cu12  1  0.00000000  0.00000000  0.56742000  1.0 0.8364067871
H  H1  1  0.48701000  0.96917000  0.27191000  1.0 0.1386025894
H  H2  1  0.27191000  0.27191000  0.48701000  1.0 0.1386025894
H  H3  1  0.96917000  0.48701000  0.27191000  1.0 0.1386025894
H  H4  1  0.27191000  0.27191000  0.96917000  1.0 0.1386025894
H  H5  1  0.96917000  0.27191000  0.48701000  1.0 0.1386025894
H  H6  1  0.27191000  0.48701000  0.27191000  1.0 0.1386025894
H  H7  1  0.48701000  0.27191000  0.96917000  1.0 0.1386025894
H  H8  1  0.27191000  0.96917000  0.27191000  1.0 0.1386025894
H  H9  1  0.27191000  0.48701000  0.96917000  1.0 0.1386025894
H  H10  1  0.48701000  0.27191000  0.27191000  1.0 0.1386025894
H  H11  1  0.27191000  0.96917000  0.48701000  1.0 0.1386025894
H  H12  1  0.96917000  0.27191000  0.27191000  1.0 0.1386025894
H  H13  1  0.51299000  0.72809000  0.72809000  1.0 0.1386025894
H  H14  1  0.72809000  0.03083000  0.51299000  1.0 0.1386025894
H  H15  1  0.03083000  0.72809000  0.72809000  1.0 0.1386025894
H  H16  1  0.72809000  0.51299000  0.03083000  1.0 0.1386025894
H  H17  1  0.03083000  0.72809000  0.51299000  1.0 0.1386025894
H  H18  1  0.72809000  0.03083000  0.72809000  1.0 0.1386025894
H  H19  1  0.51299000  0.72809000  0.03083000  1.0 0.1386025894
H  H20  1  0.72809000  0.51299000  0.72809000  1.0 0.1386025894
H  H21  1  0.72809000  0.72809000  0.03083000  1.0 0.1386025894
H  H22  1  0.51299000  0.03083000  0.72809000  1.0 0.1386025894
H  H23  1  0.72809000  0.72809000  0.51299000  1.0 0.1386025894
H  H24  1  0.03083000  0.51299000  0.72809000  1.0 0.1386025894
C  C1  1  0.43072000  0.97668000  0.43072000  1.0 0.5764486118
C  C2  1  0.38595000  0.97129000  0.38595000  1.0 -0.0281276804
C  C3  1  0.43072000  0.16188000  0.43072000  1.0 0.5764486118
C  C4  1  0.38595000  0.25681000  0.38595000  1.0 -0.0281276804
C  C5  1  0.97668000  0.43072000  0.16188000  1.0 0.5764486118
C  C6  1  0.97129000  0.38595000  0.25681000  1.0 -0.0281276804
C  C7  1  0.16188000  0.43072000  0.97668000  1.0 0.5764486118
C  C8  1  0.25681000  0.38595000  0.97129000  1.0 -0.0281276804
C  C9  1  0.97668000  0.43072000  0.43072000  1.0 0.5764486118
C  C10  1  0.97129000  0.38595000  0.38595000  1.0 -0.0281276804
C  C11  1  0.16188000  0.43072000  0.43072000  1.0 0.5764486118
C  C12  1  0.25681000  0.38595000  0.38595000  1.0 -0.0281276804
C  C13  1  0.43072000  0.16188000  0.97668000  1.0 0.5764486118
C  C14  1  0.38595000  0.25681000  0.97129000  1.0 -0.0281276804
C  C15  1  0.43072000  0.97668000  0.16188000  1.0 0.5764486118
C  C16  1  0.38595000  0.97129000  0.25681000  1.0 -0.0281276804
C  C17  1  0.43072000  0.43072000  0.97668000  1.0 0.5764486118
C  C18  1  0.38595000  0.38595000  0.97129000  1.0 -0.0281276804
C  C19  1  0.43072000  0.43072000  0.16188000  1.0 0.5764486118
C  C20  1  0.38595000  0.38595000  0.25681000  1.0 -0.0281276804
C  C21  1  0.16188000  0.97668000  0.43072000  1.0 0.5764486118
C  C22  1  0.25681000  0.97129000  0.38595000  1.0 -0.0281276804
C  C23  1  0.97668000  0.16188000  0.43072000  1.0 0.5764486118
C  C24  1  0.97129000  0.25681000  0.38595000  1.0 -0.0281276804
C  C25  1  0.56928000  0.83812000  0.56928000  1.0 0.5764486118
C  C26  1  0.61405000  0.74319000  0.61405000  1.0 -0.0281276804
C  C27  1  0.56928000  0.02332000  0.56928000  1.0 0.5764486118
C  C28  1  0.61405000  0.02871000  0.61405000  1.0 -0.0281276804
C  C29  1  0.02332000  0.56928000  0.83812000  1.0 0.5764486118
C  C30  1  0.02871000  0.61405000  0.74319000  1.0 -0.0281276804
C  C31  1  0.83812000  0.56928000  0.02332000  1.0 0.5764486118
C  C32  1  0.74319000  0.61405000  0.02871000  1.0 -0.0281276804
C  C33  1  0.02332000  0.83812000  0.56928000  1.0 0.5764486118
C  C34  1  0.02871000  0.74319000  0.61405000  1.0 -0.0281276804
C  C35  1  0.83812000  0.02332000  0.56928000  1.0 0.5764486118
C  C36  1  0.74319000  0.02871000  0.61405000  1.0 -0.0281276804
C  C37  1  0.56928000  0.56928000  0.02332000  1.0 0.5764486118
C  C38  1  0.61405000  0.61405000  0.02871000  1.0 -0.0281276804
C  C39  1  0.56928000  0.56928000  0.83812000  1.0 0.5764486118
C  C40  1  0.61405000  0.61405000  0.74319000  1.0 -0.0281276804
C  C41  1  0.56928000  0.83812000  0.02332000  1.0 0.5764486118
C  C42  1  0.61405000  0.74319000  0.02871000  1.0 -0.0281276804
C  C43  1  0.56928000  0.02332000  0.83812000  1.0 0.5764486118
C  C44  1  0.61405000  0.02871000  0.74319000  1.0 -0.0281276804
C  C45  1  0.83812000  0.56928000  0.56928000  1.0 0.5764486118
C  C46  1  0.74319000  0.61405000  0.61405000  1.0 -0.0281276804
C  C47  1  0.02332000  0.56928000  0.56928000  1.0 0.5764486118
C  C48  1  0.02871000  0.61405000  0.61405000  1.0 -0.0281276804
C  C49  1  0.42880000  0.97040000  0.30040000  1.0 -0.0855170181
C  C50  1  0.30040000  0.30040000  0.42880000  1.0 -0.0855170181
C  C51  1  0.97040000  0.42880000  0.30040000  1.0 -0.0855170181
C  C52  1  0.30040000  0.30040000  0.97040000  1.0 -0.0849349078
C  C53  1  0.97040000  0.30040000  0.42880000  1.0 -0.0855170181
C  C54  1  0.30040000  0.42880000  0.30040000  1.0 -0.0855170181
C  C55  1  0.42880000  0.30040000  0.97040000  1.0 -0.0849349078
C  C56  1  0.30040000  0.97040000  0.30040000  1.0 -0.0855170181
C  C57  1  0.30040000  0.42880000  0.97040000  1.0 -0.0849349078
C  C58  1  0.42880000  0.30040000  0.30040000  1.0 -0.0855170181
C  C59  1  0.30040000  0.97040000  0.42880000  1.0 -0.0855170181
C  C60  1  0.97040000  0.30040000  0.30040000  1.0 -0.0855170181
C  C61  1  0.57120000  0.69960000  0.69960000  1.0 -0.0855170181
C  C62  1  0.69960000  0.02960000  0.57120000  1.0 -0.0855170181
C  C63  1  0.02960000  0.69960000  0.69960000  1.0 -0.0855170181
C  C64  1  0.69960000  0.57120000  0.02960000  1.0 -0.0855170181
C  C65  1  0.02960000  0.69960000  0.57120000  1.0 -0.0855170181
C  C66  1  0.69960000  0.02960000  0.69960000  1.0 -0.0849349078
C  C67  1  0.57120000  0.69960000  0.02960000  1.0 -0.0855170181
C  C68  1  0.69960000  0.57120000  0.69960000  1.0 -0.0855170181
C  C69  1  0.69960000  0.69960000  0.02960000  1.0 -0.0855170181
C  C70  1  0.57120000  0.02960000  0.69960000  1.0 -0.0849349078
C  C71  1  0.69960000  0.69960000  0.57120000  1.0 -0.0855170181
C  C72  1  0.02960000  0.57120000  0.69960000  1.0 -0.0855170181
O  O1  1  0.38786000  0.97916000  0.50740000  1.0 -0.5098024782
O  O2  1  0.50740000  0.12558000  0.38786000  1.0 -0.5098024782
O  O3  1  0.97916000  0.38786000  0.12558000  1.0 -0.5098024782
O  O4  1  0.12558000  0.50740000  0.97916000  1.0 -0.5098024782
O  O5  1  0.97916000  0.50740000  0.38786000  1.0 -0.5098024782
O  O6  1  0.12558000  0.38786000  0.50740000  1.0 -0.5098024782
O  O7  1  0.38786000  0.12558000  0.97916000  1.0 -0.5098024782
O  O8  1  0.50740000  0.97916000  0.12558000  1.0 -0.5098024782
O  O9  1  0.50740000  0.38786000  0.97916000  1.0 -0.5098024782
O  O10  1  0.38786000  0.50740000  0.12558000  1.0 -0.5098024782
O  O11  1  0.12558000  0.97916000  0.38786000  1.0 -0.5098024782
O  O12  1  0.97916000  0.12558000  0.50740000  1.0 -0.5098024782
O  O13  1  0.61214000  0.87442000  0.49260000  1.0 -0.5098024782
O  O14  1  0.49260000  0.02084000  0.61214000  1.0 -0.5098024782
O  O15  1  0.02084000  0.49260000  0.87442000  1.0 -0.5098024782
O  O16  1  0.87442000  0.61214000  0.02084000  1.0 -0.5098024782
O  O17  1  0.02084000  0.87442000  0.61214000  1.0 -0.5098024782
O  O18  1  0.87442000  0.02084000  0.49260000  1.0 -0.5098024782
O  O19  1  0.61214000  0.49260000  0.02084000  1.0 -0.5098024782
O  O20  1  0.49260000  0.61214000  0.87442000  1.0 -0.5098024782
O  O21  1  0.49260000  0.87442000  0.02084000  1.0 -0.5098024782
O  O22  1  0.61214000  0.02084000  0.87442000  1.0 -0.5098024782
O  O23  1  0.87442000  0.49260000  0.61214000  1.0 -0.5098024782
O  O24  1  0.02084000  0.61214000  0.49260000  1.0 -0.5098024782
O  O25  1  0.61214000  0.02084000  0.49260000  1.0 -0.5098024782
O  O26  1  0.49260000  0.87442000  0.61214000  1.0 -0.5098024782
O  O27  1  0.02084000  0.61214000  0.87442000  1.0 -0.5098024782
O  O28  1  0.87442000  0.49260000  0.02084000  1.0 -0.5098024782
O  O29  1  0.02084000  0.49260000  0.61214000  1.0 -0.5098024782
O  O30  1  0.87442000  0.61214000  0.49260000  1.0 -0.5098024782
O  O31  1  0.61214000  0.87442000  0.02084000  1.0 -0.5098024782
O  O32  1  0.49260000  0.02084000  0.87442000  1.0 -0.5098024782
O  O33  1  0.49260000  0.61214000  0.02084000  1.0 -0.5098024782
O  O34  1  0.61214000  0.49260000  0.87442000  1.0 -0.5098024782
O  O35  1  0.87442000  0.02084000  0.61214000  1.0 -0.5098024782
O  O36  1  0.02084000  0.87442000  0.49260000  1.0 -0.5098024782
O  O37  1  0.38786000  0.12558000  0.50740000  1.0 -0.5098024782
O  O38  1  0.50740000  0.97916000  0.38786000  1.0 -0.5098024782
O  O39  1  0.97916000  0.50740000  0.12558000  1.0 -0.5098024782
O  O40  1  0.12558000  0.38786000  0.97916000  1.0 -0.5098024782
O  O41  1  0.97916000  0.12558000  0.38786000  1.0 -0.5098024782
O  O42  1  0.12558000  0.97916000  0.50740000  1.0 -0.5098024782
O  O43  1  0.38786000  0.50740000  0.97916000  1.0 -0.5098024782
O  O44  1  0.50740000  0.38786000  0.12558000  1.0 -0.5098024782
O  O45  1  0.50740000  0.12558000  0.97916000  1.0 -0.5098024782
O  O46  1  0.38786000  0.97916000  0.12558000  1.0 -0.5098024782
O  O47  1  0.12558000  0.50740000  0.38786000  1.0 -0.5098024782
O  O48  1  0.97916000  0.38786000  0.50740000  1.0 -0.5098024782
