# DDEC6 charges by PACMAN v1.1 (https://github.com/mtap-research/PACMAN-charge/)
data_YOZNIM_FSR_pacman
_symmetry_space_group_name_H-M   'P 1'
_cell_length_a   18.62960000
_cell_length_b   18.62960000
_cell_length_c   18.62960000
_cell_angle_alpha   60.00000000
_cell_angle_beta   60.00000000
_cell_angle_gamma   60.00000000
_symmetry_Int_Tables_number   1
_chemical_formula_structural   CuH2C8O5
_chemical_formula_sum   'Cu12 H24 C96 O60'
_cell_volume   4571.88810494
_cell_formula_units_Z   12
loop_
 _symmetry_equiv_pos_site_id
 _symmetry_equiv_pos_as_xyz
  1  'x, y, z'
loop_
 _atom_site_type_symbol
 _atom_site_label
 _atom_site_symmetry_multiplicity
 _atom_site_fract_x
 _atom_site_fract_y
 _atom_site_fract_z
 _atom_site_occupancy
 _atom_site_charge
Cu  Cu1  1  0.00000000  0.00000000  0.57056000  1.0 0.8475004877
Cu  Cu2  1  0.57056000  0.42944000  0.00000000  1.0 0.8475004877
Cu  Cu3  1  0.00000000  0.00000000  0.42944000  1.0 0.8475004877
Cu  Cu4  1  0.42944000  0.57056000  0.00000000  1.0 0.8475004877
Cu  Cu5  1  0.00000000  0.57056000  0.00000000  1.0 0.8475004877
Cu  Cu6  1  0.42944000  0.00000000  0.57056000  1.0 0.8475004877
Cu  Cu7  1  0.00000000  0.42944000  0.57056000  1.0 0.8475004877
Cu  Cu8  1  0.57056000  0.00000000  0.00000000  1.0 0.8475004877
Cu  Cu9  1  0.57056000  0.00000000  0.42944000  1.0 0.8475004877
Cu  Cu10  1  0.42944000  0.00000000  0.00000000  1.0 0.8475004877
Cu  Cu11  1  0.00000000  0.42944000  0.00000000  1.0 0.8475004877
Cu  Cu12  1  0.00000000  0.57056000  0.42944000  1.0 0.8475004877
H  H1  1  0.27210000  0.96850000  0.27210000  1.0 0.134234306
H  H2  1  0.51270000  0.72790000  0.72790000  1.0 0.134234306
H  H3  1  0.96850000  0.27210000  0.48730000  1.0 0.134234306
H  H4  1  0.72790000  0.51270000  0.03150000  1.0 0.134234306
H  H5  1  0.03150000  0.51270000  0.72790000  1.0 0.134234306
H  H6  1  0.48730000  0.27210000  0.96850000  1.0 0.134234306
H  H7  1  0.72790000  0.72790000  0.51270000  1.0 0.1351239329
H  H8  1  0.03150000  0.72790000  0.51270000  1.0 0.1351239329
H  H9  1  0.27210000  0.48730000  0.27210000  1.0 0.134234306
H  H10  1  0.51270000  0.72790000  0.03150000  1.0 0.134234306
H  H11  1  0.27210000  0.27210000  0.96850000  1.0 0.134234306
H  H12  1  0.96850000  0.27210000  0.27210000  1.0 0.134234306
H  H13  1  0.27210000  0.96850000  0.48730000  1.0 0.134234306
H  H14  1  0.48730000  0.96850000  0.27210000  1.0 0.134234306
H  H15  1  0.27210000  0.48730000  0.96850000  1.0 0.134234306
H  H16  1  0.27210000  0.27210000  0.48730000  1.0 0.134234306
H  H17  1  0.96850000  0.48730000  0.27210000  1.0 0.134234306
H  H18  1  0.48730000  0.27210000  0.27210000  1.0 0.134234306
H  H19  1  0.72790000  0.03150000  0.51270000  1.0 0.134234306
H  H20  1  0.03150000  0.72790000  0.72790000  1.0 0.134234306
H  H21  1  0.51270000  0.03150000  0.72790000  1.0 0.134234306
H  H22  1  0.72790000  0.72790000  0.03150000  1.0 0.1351239329
H  H23  1  0.72790000  0.51270000  0.72790000  1.0 0.1351239329
H  H24  1  0.72790000  0.03150000  0.72790000  1.0 0.134234306
C  C1  1  0.25723000  0.96915000  0.38681000  1.0 -0.0262854702
C  C2  1  0.61319000  0.61319000  0.74277000  1.0 -0.0262854702
C  C3  1  0.96915000  0.25723000  0.38681000  1.0 -0.0262854702
C  C4  1  0.61319000  0.61319000  0.03085000  1.0 -0.0262854702
C  C5  1  0.03085000  0.61319000  0.74277000  1.0 -0.0262854702
C  C6  1  0.38681000  0.38681000  0.96915000  1.0 -0.0262854702
C  C7  1  0.61319000  0.74277000  0.61319000  1.0 -0.0262854702
C  C8  1  0.03085000  0.61319000  0.61319000  1.0 -0.0262854702
C  C9  1  0.38681000  0.38681000  0.25723000  1.0 -0.0262854702
C  C10  1  0.61319000  0.74277000  0.03085000  1.0 -0.0262854702
C  C11  1  0.38681000  0.25723000  0.96915000  1.0 -0.0262854702
C  C12  1  0.96915000  0.38681000  0.25723000  1.0 -0.0262854702
C  C13  1  0.38681000  0.96915000  0.38681000  1.0 -0.0262854702
C  C14  1  0.38681000  0.96915000  0.25723000  1.0 -0.0262854702
C  C15  1  0.25723000  0.38681000  0.96915000  1.0 -0.0262854702
C  C16  1  0.25723000  0.38681000  0.38681000  1.0 -0.0262854702
C  C17  1  0.96915000  0.38681000  0.38681000  1.0 -0.0262854702
C  C18  1  0.38681000  0.25723000  0.38681000  1.0 -0.0262854702
C  C19  1  0.74277000  0.03085000  0.61319000  1.0 -0.0262854702
C  C20  1  0.03085000  0.74277000  0.61319000  1.0 -0.0262854702
C  C21  1  0.61319000  0.03085000  0.61319000  1.0 -0.0262854702
C  C22  1  0.74277000  0.61319000  0.03085000  1.0 -0.0262854702
C  C23  1  0.74277000  0.61319000  0.61319000  1.0 -0.0262854702
C  C24  1  0.61319000  0.03085000  0.74277000  1.0 -0.0262854702
C  C25  1  0.16244000  0.97552000  0.43102000  1.0 0.5727371916
C  C26  1  0.56898000  0.56898000  0.83756000  1.0 0.5727371916
C  C27  1  0.97552000  0.16244000  0.43102000  1.0 0.5727371916
C  C28  1  0.56898000  0.56898000  0.02448000  1.0 0.5727371916
C  C29  1  0.02448000  0.56898000  0.83756000  1.0 0.5727371916
C  C30  1  0.43102000  0.43102000  0.97552000  1.0 0.5727371916
C  C31  1  0.56898000  0.83756000  0.56898000  1.0 0.5727371916
C  C32  1  0.02448000  0.56898000  0.56898000  1.0 0.5727371916
C  C33  1  0.43102000  0.43102000  0.16244000  1.0 0.5727371916
C  C34  1  0.56898000  0.83756000  0.02448000  1.0 0.5727371916
C  C35  1  0.43102000  0.16244000  0.97552000  1.0 0.5727371916
C  C36  1  0.97552000  0.43102000  0.16244000  1.0 0.5727371916
C  C37  1  0.43102000  0.97552000  0.43102000  1.0 0.5727371916
C  C38  1  0.43102000  0.97552000  0.16244000  1.0 0.5727371916
C  C39  1  0.16244000  0.43102000  0.97552000  1.0 0.5727371916
C  C40  1  0.16244000  0.43102000  0.43102000  1.0 0.5727371916
C  C41  1  0.97552000  0.43102000  0.43102000  1.0 0.5727371916
C  C42  1  0.43102000  0.16244000  0.43102000  1.0 0.5727371916
C  C43  1  0.83756000  0.02448000  0.56898000  1.0 0.5727371916
C  C44  1  0.02448000  0.83756000  0.56898000  1.0 0.5727371916
C  C45  1  0.56898000  0.02448000  0.56898000  1.0 0.5727371916
C  C46  1  0.83756000  0.56898000  0.02448000  1.0 0.5727371916
C  C47  1  0.83756000  0.56898000  0.56898000  1.0 0.5727371916
C  C48  1  0.56898000  0.02448000  0.83756000  1.0 0.5727371916
C  C49  1  0.30076000  0.96888000  0.30076000  1.0 -0.0866604257
C  C50  1  0.57040000  0.69924000  0.69924000  1.0 -0.0866604257
C  C51  1  0.96888000  0.30076000  0.42960000  1.0 -0.0866604257
C  C52  1  0.69924000  0.57040000  0.03112000  1.0 -0.0866604257
C  C53  1  0.03112000  0.57040000  0.69924000  1.0 -0.0866604257
C  C54  1  0.42960000  0.30076000  0.96888000  1.0 -0.0866604257
C  C55  1  0.69924000  0.69924000  0.57040000  1.0 -0.0866604257
C  C56  1  0.03112000  0.69924000  0.57040000  1.0 -0.0866604257
C  C57  1  0.30076000  0.42960000  0.30076000  1.0 -0.0866604257
C  C58  1  0.57040000  0.69924000  0.03112000  1.0 -0.0866604257
C  C59  1  0.30076000  0.30076000  0.96888000  1.0 -0.0866604257
C  C60  1  0.96888000  0.30076000  0.30076000  1.0 -0.0866604257
C  C61  1  0.30076000  0.96888000  0.42960000  1.0 -0.0866604257
C  C62  1  0.42960000  0.96888000  0.30076000  1.0 -0.0866604257
C  C63  1  0.30076000  0.42960000  0.96888000  1.0 -0.0866604257
C  C64  1  0.30076000  0.30076000  0.42960000  1.0 -0.0866604257
C  C65  1  0.96888000  0.42960000  0.30076000  1.0 -0.0866604257
C  C66  1  0.42960000  0.30076000  0.30076000  1.0 -0.0866604257
C  C67  1  0.69924000  0.03112000  0.57040000  1.0 -0.0866604257
C  C68  1  0.03112000  0.69924000  0.69924000  1.0 -0.0866604257
C  C69  1  0.57040000  0.03112000  0.69924000  1.0 -0.0866604257
C  C70  1  0.69924000  0.69924000  0.03112000  1.0 -0.0866604257
C  C71  1  0.69924000  0.57040000  0.69924000  1.0 -0.0866604257
C  C72  1  0.69924000  0.03112000  0.69924000  1.0 -0.0866604257
C  C73  1  0.00000000  0.00000000  0.73900000  1.0 0.5376273886
C  C74  1  0.73900000  0.26100000  0.00000000  1.0 0.5376273886
C  C75  1  0.00000000  0.00000000  0.26100000  1.0 0.5376273886
C  C76  1  0.26100000  0.73900000  0.00000000  1.0 0.5376273886
C  C77  1  0.00000000  0.73900000  0.00000000  1.0 0.5376273886
C  C78  1  0.26100000  0.00000000  0.73900000  1.0 0.5376273886
C  C79  1  0.00000000  0.26100000  0.73900000  1.0 0.5376273886
C  C80  1  0.73900000  0.00000000  0.00000000  1.0 0.5376273886
C  C81  1  0.73900000  0.00000000  0.26100000  1.0 0.5376273886
C  C82  1  0.26100000  0.00000000  0.00000000  1.0 0.5376273886
C  C83  1  0.00000000  0.26100000  0.00000000  1.0 0.5376273886
C  C84  1  0.00000000  0.73900000  0.26100000  1.0 0.5376273886
C  C85  1  0.00000000  0.00000000  0.81840000  1.0 -0.2235677173
C  C86  1  0.81840000  0.18160000  0.00000000  1.0 -0.2235677173
C  C87  1  0.00000000  0.00000000  0.18160000  1.0 -0.2235677173
C  C88  1  0.18160000  0.81840000  0.00000000  1.0 -0.2263356725
C  C89  1  0.00000000  0.81840000  0.00000000  1.0 -0.2263356725
C  C90  1  0.18160000  0.00000000  0.81840000  1.0 -0.2263356725
C  C91  1  0.00000000  0.18160000  0.81840000  1.0 -0.2235677173
C  C92  1  0.81840000  0.00000000  0.00000000  1.0 -0.2263356725
C  C93  1  0.81840000  0.00000000  0.18160000  1.0 -0.2263356725
C  C94  1  0.18160000  0.00000000  0.00000000  1.0 -0.2263356725
C  C95  1  0.00000000  0.18160000  0.00000000  1.0 -0.2235677173
C  C96  1  0.00000000  0.81840000  0.18160000  1.0 -0.2235677173
O  O1  1  0.12625000  0.97913000  0.50729000  1.0 -0.5164828702
O  O2  1  0.61267000  0.49271000  0.87375000  1.0 -0.5164828702
O  O3  1  0.97913000  0.12625000  0.38733000  1.0 -0.5164828702
O  O4  1  0.49271000  0.61267000  0.02087000  1.0 -0.5164828702
O  O5  1  0.02087000  0.61267000  0.87375000  1.0 -0.5164828702
O  O6  1  0.38733000  0.50729000  0.97913000  1.0 -0.5164828702
O  O7  1  0.49271000  0.87375000  0.61267000  1.0 -0.5164828702
O  O8  1  0.02087000  0.49271000  0.61267000  1.0 -0.5164828702
O  O9  1  0.50729000  0.38733000  0.12625000  1.0 -0.5164828702
O  O10  1  0.61267000  0.87375000  0.02087000  1.0 -0.5164828702
O  O11  1  0.50729000  0.12625000  0.97913000  1.0 -0.5164828702
O  O12  1  0.97913000  0.50729000  0.12625000  1.0 -0.5164828702
O  O13  1  0.50729000  0.97913000  0.38733000  1.0 -0.5164828702
O  O14  1  0.38733000  0.97913000  0.12625000  1.0 -0.5164828702
O  O15  1  0.12625000  0.38733000  0.97913000  1.0 -0.5164828702
O  O16  1  0.12625000  0.50729000  0.38733000  1.0 -0.5164828702
O  O17  1  0.97913000  0.38733000  0.50729000  1.0 -0.5164828702
O  O18  1  0.38733000  0.12625000  0.50729000  1.0 -0.5164828702
O  O19  1  0.87375000  0.02087000  0.61267000  1.0 -0.5164828702
O  O20  1  0.02087000  0.87375000  0.49271000  1.0 -0.5164828702
O  O21  1  0.61267000  0.02087000  0.49271000  1.0 -0.5164828702
O  O22  1  0.87375000  0.49271000  0.02087000  1.0 -0.5164828702
O  O23  1  0.87375000  0.61267000  0.49271000  1.0 -0.5164828702
O  O24  1  0.49271000  0.02087000  0.87375000  1.0 -0.5164828702
O  O25  1  0.87375000  0.02087000  0.49271000  1.0 -0.5164828702
O  O26  1  0.38733000  0.50729000  0.12625000  1.0 -0.5164828702
O  O27  1  0.02087000  0.87375000  0.61267000  1.0 -0.5164828702
O  O28  1  0.50729000  0.38733000  0.97913000  1.0 -0.5164828702
O  O29  1  0.97913000  0.38733000  0.12625000  1.0 -0.5164828702
O  O30  1  0.61267000  0.49271000  0.02087000  1.0 -0.5164828702
O  O31  1  0.50729000  0.12625000  0.38733000  1.0 -0.5164828702
O  O32  1  0.97913000  0.50729000  0.38733000  1.0 -0.5164828702
O  O33  1  0.49271000  0.61267000  0.87375000  1.0 -0.5164828702
O  O34  1  0.38733000  0.12625000  0.97913000  1.0 -0.5164828702
O  O35  1  0.49271000  0.87375000  0.02087000  1.0 -0.5164828702
O  O36  1  0.02087000  0.49271000  0.87375000  1.0 -0.5164828702
O  O37  1  0.49271000  0.02087000  0.61267000  1.0 -0.5164828702
O  O38  1  0.61267000  0.02087000  0.87375000  1.0 -0.5164828702
O  O39  1  0.87375000  0.61267000  0.02087000  1.0 -0.5164828702
O  O40  1  0.87375000  0.49271000  0.61267000  1.0 -0.5164828702
O  O41  1  0.02087000  0.61267000  0.49271000  1.0 -0.5164828702
O  O42  1  0.61267000  0.87375000  0.49271000  1.0 -0.5164828702
O  O43  1  0.12625000  0.97913000  0.38733000  1.0 -0.5164828702
O  O44  1  0.97913000  0.12625000  0.50729000  1.0 -0.5164828702
O  O45  1  0.38733000  0.97913000  0.50729000  1.0 -0.5164828702
O  O46  1  0.12625000  0.50729000  0.97913000  1.0 -0.5164828702
O  O47  1  0.12625000  0.38733000  0.50729000  1.0 -0.5164828702
O  O48  1  0.50729000  0.97913000  0.12625000  1.0 -0.5164828702
O  O49  1  0.00000000  0.00000000  0.68822000  1.0 -0.2825924461
O  O50  1  0.68822000  0.31178000  0.00000000  1.0 -0.2825924461
O  O51  1  0.00000000  0.00000000  0.31178000  1.0 -0.2825924461
O  O52  1  0.31178000  0.68822000  0.00000000  1.0 -0.2825924461
O  O53  1  0.00000000  0.68822000  0.00000000  1.0 -0.2825924461
O  O54  1  0.31178000  0.00000000  0.68822000  1.0 -0.2825924461
O  O55  1  0.00000000  0.31178000  0.68822000  1.0 -0.2825924461
O  O56  1  0.68822000  0.00000000  0.00000000  1.0 -0.2825924461
O  O57  1  0.68822000  0.00000000  0.31178000  1.0 -0.2825924461
O  O58  1  0.31178000  0.00000000  0.00000000  1.0 -0.2825924461
O  O59  1  0.00000000  0.31178000  0.00000000  1.0 -0.2825924461
O  O60  1  0.00000000  0.68822000  0.31178000  1.0 -0.2825924461
