# DDEC6 charges by PACMAN v1.1 (https://github.com/mtap-research/PACMAN-charge/)
data_YUBFOR_FSR_pacman
_symmetry_space_group_name_H-M   'P 1'
_cell_length_a   12.28710000
_cell_length_b   12.28710000
_cell_length_c   12.28710000
_cell_angle_alpha   110.96900000
_cell_angle_beta   110.96900000
_cell_angle_gamma   110.96900000
_symmetry_Int_Tables_number   1
_chemical_formula_structural   ZnH8C5N3O4
_chemical_formula_sum   'Zn6 H48 C30 N18 O24'
_cell_volume   1342.99058238
_cell_formula_units_Z   6
loop_
 _symmetry_equiv_pos_site_id
 _symmetry_equiv_pos_as_xyz
  1  'x, y, z'
loop_
 _atom_site_type_symbol
 _atom_site_label
 _atom_site_symmetry_multiplicity
 _atom_site_fract_x
 _atom_site_fract_y
 _atom_site_fract_z
 _atom_site_occupancy
 _atom_site_charge
Zn  Zn1  1  0.31238000  0.37463000  0.84762000  1.0 0.6732052688
Zn  Zn2  1  0.37463000  0.84762000  0.31238000  1.0 0.6732052688
Zn  Zn3  1  0.84762000  0.31238000  0.37463000  1.0 0.6732052688
Zn  Zn4  1  0.68762000  0.62537000  0.15238000  1.0 0.6732052688
Zn  Zn5  1  0.62537000  0.15238000  0.68762000  1.0 0.6732052688
Zn  Zn6  1  0.15238000  0.68762000  0.62537000  1.0 0.6732052688
H  H1  1  0.73140000  0.81330000  0.40200000  1.0 0.118823645
H  H2  1  0.81330000  0.40200000  0.73140000  1.0 0.118823645
H  H3  1  0.40200000  0.73140000  0.81330000  1.0 0.118823645
H  H4  1  0.26860000  0.18670000  0.59800000  1.0 0.118823645
H  H5  1  0.18670000  0.59800000  0.26860000  1.0 0.118823645
H  H6  1  0.59800000  0.26860000  0.18670000  1.0 0.118823645
H  H7  1  0.63840000  0.81410000  0.46210000  1.0 0.1404102295
H  H8  1  0.81410000  0.46210000  0.63840000  1.0 0.1404102295
H  H9  1  0.46210000  0.63840000  0.81410000  1.0 0.1404102295
H  H10  1  0.36160000  0.18590000  0.53790000  1.0 0.1404102295
H  H11  1  0.18590000  0.53790000  0.36160000  1.0 0.1404102295
H  H12  1  0.53790000  0.36160000  0.18590000  1.0 0.1404102295
H  H13  1  0.68090000  0.91500000  0.41350000  1.0 0.1301859443
H  H14  1  0.91500000  0.41350000  0.68090000  1.0 0.1301859443
H  H15  1  0.41350000  0.68090000  0.91500000  1.0 0.1301859443
H  H16  1  0.31910000  0.08500000  0.58650000  1.0 0.1301859443
H  H17  1  0.08500000  0.58650000  0.31910000  1.0 0.1301859443
H  H18  1  0.58650000  0.31910000  0.08500000  1.0 0.1301859443
H  H19  1  0.12880000  0.44660000  0.88870000  1.0 0.0964680549
H  H20  1  0.44660000  0.88870000  0.12880000  1.0 0.0964680549
H  H21  1  0.88870000  0.12880000  0.44660000  1.0 0.0964680549
H  H22  1  0.87120000  0.55340000  0.11130000  1.0 0.0964680549
H  H23  1  0.55340000  0.11130000  0.87120000  1.0 0.0964680549
H  H24  1  0.11130000  0.87120000  0.55340000  1.0 0.0964680549
H  H25  1  0.15310000  0.59390000  0.96790000  1.0 0.109083419
H  H26  1  0.59390000  0.96790000  0.15310000  1.0 0.109083419
H  H27  1  0.96790000  0.15310000  0.59390000  1.0 0.109083419
H  H28  1  0.84690000  0.40610000  0.03210000  1.0 0.109083419
H  H29  1  0.40610000  0.03210000  0.84690000  1.0 0.109083419
H  H30  1  0.03210000  0.84690000  0.40610000  1.0 0.109083419
H  H31  1  0.11660000  0.49330000  0.01800000  1.0 0.0927919199
H  H32  1  0.49330000  0.01800000  0.11660000  1.0 0.0927919199
H  H33  1  0.01800000  0.11660000  0.49330000  1.0 0.0927919199
H  H34  1  0.88340000  0.50670000  0.98200000  1.0 0.0927919199
H  H35  1  0.50670000  0.98200000  0.88340000  1.0 0.0927919199
H  H36  1  0.98200000  0.88340000  0.50670000  1.0 0.0927919199
H  H37  1  0.11730000  0.05320000  0.81090000  1.0 0.1404102295
H  H38  1  0.05320000  0.81090000  0.11730000  1.0 0.1404102295
H  H39  1  0.81090000  0.11730000  0.05320000  1.0 0.1404102295
H  H40  1  0.88270000  0.94680000  0.18910000  1.0 0.1404102295
H  H41  1  0.94680000  0.18910000  0.88270000  1.0 0.1404102295
H  H42  1  0.18910000  0.88270000  0.94680000  1.0 0.1404102295
H  H43  1  0.16190000  0.88760000  0.92790000  1.0 0.1404102295
H  H44  1  0.88760000  0.92790000  0.16190000  1.0 0.1404102295
H  H45  1  0.92790000  0.16190000  0.88760000  1.0 0.1404102295
H  H46  1  0.83810000  0.11240000  0.07210000  1.0 0.1404102295
H  H47  1  0.11240000  0.07210000  0.83810000  1.0 0.1404102295
H  H48  1  0.07210000  0.83810000  0.11240000  1.0 0.1404102295
C  C1  1  0.65590000  0.82380000  0.39500000  1.0 -0.5442388331
C  C2  1  0.82380000  0.39500000  0.65590000  1.0 -0.5442388331
C  C3  1  0.39500000  0.65590000  0.82380000  1.0 -0.5442388331
C  C4  1  0.34410000  0.17620000  0.60500000  1.0 -0.5442388331
C  C5  1  0.17620000  0.60500000  0.34410000  1.0 -0.5442388331
C  C6  1  0.60500000  0.34410000  0.17620000  1.0 -0.5442388331
C  C7  1  0.52760000  0.71440000  0.25170000  1.0 0.373253179
C  C8  1  0.71440000  0.25170000  0.52760000  1.0 0.373253179
C  C9  1  0.25170000  0.52760000  0.71440000  1.0 0.373253179
C  C10  1  0.47240000  0.28560000  0.74830000  1.0 0.373253179
C  C11  1  0.28560000  0.74830000  0.47240000  1.0 0.373253179
C  C12  1  0.74830000  0.47240000  0.28560000  1.0 0.373253179
C  C13  1  0.31720000  0.58750000  0.07360000  1.0 0.3282912895
C  C14  1  0.58750000  0.07360000  0.31720000  1.0 0.3282912895
C  C15  1  0.07360000  0.31720000  0.58750000  1.0 0.3282912895
C  C16  1  0.68280000  0.41250000  0.92640000  1.0 0.3282912895
C  C17  1  0.41250000  0.92640000  0.68280000  1.0 0.3282912895
C  C18  1  0.92640000  0.68280000  0.41250000  1.0 0.3282912895
C  C19  1  0.16550000  0.52480000  0.97870000  1.0 -0.5633090214
C  C20  1  0.52480000  0.97870000  0.16550000  1.0 -0.5633090214
C  C21  1  0.97870000  0.16550000  0.52480000  1.0 -0.5633090214
C  C22  1  0.83450000  0.47520000  0.02130000  1.0 -0.5633090214
C  C23  1  0.47520000  0.02130000  0.83450000  1.0 -0.5633090214
C  C24  1  0.02130000  0.83450000  0.47520000  1.0 -0.5633090214
C  C25  1  0.18480000  0.14640000  0.85090000  1.0 0.2674982225
C  C26  1  0.14640000  0.85090000  0.18480000  1.0 0.2674982225
C  C27  1  0.85090000  0.18480000  0.14640000  1.0 0.2674982225
C  C28  1  0.81520000  0.85360000  0.14910000  1.0 0.2674982225
C  C29  1  0.85360000  0.14910000  0.81520000  1.0 0.2674982225
C  C30  1  0.14910000  0.81520000  0.85360000  1.0 0.2674982225
N  N1  1  0.38540000  0.53820000  0.03520000  1.0 -0.3398441549
N  N2  1  0.53820000  0.03520000  0.38540000  1.0 -0.3398441549
N  N3  1  0.03520000  0.38540000  0.53820000  1.0 -0.3398441549
N  N4  1  0.61460000  0.46180000  0.96480000  1.0 -0.3398441549
N  N5  1  0.46180000  0.96480000  0.61460000  1.0 -0.3398441549
N  N6  1  0.96480000  0.61460000  0.46180000  1.0 -0.3398441549
N  N7  1  0.52190000  0.62100000  0.15130000  1.0 -0.3074241455
N  N8  1  0.62100000  0.15130000  0.52190000  1.0 -0.3074241455
N  N9  1  0.15130000  0.52190000  0.62100000  1.0 -0.3074241455
N  N10  1  0.47810000  0.37900000  0.84870000  1.0 -0.3074241455
N  N11  1  0.37900000  0.84870000  0.47810000  1.0 -0.3074241455
N  N12  1  0.84870000  0.47810000  0.37900000  1.0 -0.3074241455
N  N13  1  0.40280000  0.70010000  0.20870000  1.0 -0.4777479495
N  N14  1  0.70010000  0.20870000  0.40280000  1.0 -0.4777479495
N  N15  1  0.20870000  0.40280000  0.70010000  1.0 -0.4777479495
N  N16  1  0.59720000  0.29990000  0.79130000  1.0 -0.4777479495
N  N17  1  0.29990000  0.79130000  0.59720000  1.0 -0.4777479495
N  N18  1  0.79130000  0.59720000  0.29990000  1.0 -0.4777479495
O  O1  1  0.18940000  0.18170000  0.77890000  1.0 0.0010750979
O  O2  1  0.18170000  0.77890000  0.18940000  1.0 0.0010750979
O  O3  1  0.77890000  0.18940000  0.18170000  1.0 0.0010750979
O  O4  1  0.81060000  0.81830000  0.22110000  1.0 0.0010750979
O  O5  1  0.81830000  0.22110000  0.81060000  1.0 0.0010750979
O  O6  1  0.22110000  0.81060000  0.81830000  1.0 0.0010750979
O  O7  1  0.26670000  0.22710000  0.98380000  1.0 -0.197162288
O  O8  1  0.22710000  0.98380000  0.26670000  1.0 -0.197162288
O  O9  1  0.98380000  0.26670000  0.22710000  1.0 -0.197162288
O  O10  1  0.73330000  0.77290000  0.01620000  1.0 -0.194257694
O  O11  1  0.77290000  0.01620000  0.73330000  1.0 -0.194257694
O  O12  1  0.01620000  0.73330000  0.77290000  1.0 -0.197162288
O  O13  1  0.19730000  0.84200000  0.79200000  1.0 -0.0731306741
O  O14  1  0.84200000  0.79200000  0.19730000  1.0 -0.0731306741
O  O15  1  0.79200000  0.19730000  0.84200000  1.0 -0.0731306741
O  O16  1  0.80270000  0.15800000  0.20800000  1.0 -0.0731306741
O  O17  1  0.15800000  0.20800000  0.80270000  1.0 -0.0731306741
O  O18  1  0.20800000  0.80270000  0.15800000  1.0 -0.0731306741
O  O19  1  0.08310000  0.69620000  0.82370000  1.0 -0.110017861
O  O20  1  0.69620000  0.82370000  0.08310000  1.0 -0.110017861
O  O21  1  0.82370000  0.08310000  0.69620000  1.0 -0.110017861
O  O22  1  0.91690000  0.30380000  0.17630000  1.0 -0.110017861
O  O23  1  0.30380000  0.17630000  0.91690000  1.0 -0.110017861
O  O24  1  0.17630000  0.91690000  0.30380000  1.0 -0.110017861
