# DDEC6 charges by PACMAN v1.1 (https://github.com/mtap-research/PACMAN-charge/)
data_YUCGOS_FSR_pacman
_symmetry_space_group_name_H-M   'P 1'
_cell_length_a   12.28730000
_cell_length_b   12.28730000
_cell_length_c   22.07500000
_cell_angle_alpha   79.36880000
_cell_angle_beta   100.63100000
_cell_angle_gamma   83.22020000
_symmetry_Int_Tables_number   1
_chemical_formula_structural   Na3La2TbC28(SO10)4
_chemical_formula_sum   'Na6 La4 Tb2 C56 S8 O80'
_cell_volume   3179.24747573
_cell_formula_units_Z   2
loop_
 _symmetry_equiv_pos_site_id
 _symmetry_equiv_pos_as_xyz
  1  'x, y, z'
loop_
 _atom_site_type_symbol
 _atom_site_label
 _atom_site_symmetry_multiplicity
 _atom_site_fract_x
 _atom_site_fract_y
 _atom_site_fract_z
 _atom_site_occupancy
 _atom_site_charge
Na  Na1  1  0.50000000  0.50000000  0.00000000  1.0 1.0055723963
Na  Na2  1  0.50000000  0.50000000  0.50000000  1.0 1.0055723963
Na  Na3  1  0.55170000  0.01250000  0.92800000  1.0 0.9401641963
Na  Na4  1  0.01250000  0.55170000  0.57200000  1.0 0.9401641963
Na  Na5  1  0.44830000  0.98750000  0.07200000  1.0 0.9401641963
Na  Na6  1  0.98750000  0.44830000  0.42800000  1.0 0.9401641963
La  La1  1  0.68370000  0.16470000  0.79050000  1.0 1.7767752585
La  La2  1  0.16470000  0.68370000  0.70950000  1.0 1.7767752585
La  La3  1  0.31630000  0.83530000  0.20950000  1.0 1.7767752585
La  La4  1  0.83530000  0.31630000  0.29050000  1.0 1.7767752585
Tb  Tb1  1  0.92310000  0.92310000  0.75000000  1.0 2.1067283032
Tb  Tb2  1  0.07690000  0.07690000  0.25000000  1.0 2.1067283032
C  C1  1  0.90360000  0.71680000  0.01250000  1.0 -0.1904637116
C  C2  1  0.71680000  0.90360000  0.48750000  1.0 -0.1904637116
C  C3  1  0.09640000  0.28320000  0.98750000  1.0 -0.1904637116
C  C4  1  0.28320000  0.09640000  0.51250000  1.0 -0.1904637116
C  C5  1  0.97950000  0.64730000  0.99340000  1.0 0.0278201378
C  C6  1  0.64730000  0.97950000  0.50660000  1.0 0.0278201378
C  C7  1  0.02050000  0.35270000  0.00660000  1.0 0.0278201378
C  C8  1  0.35270000  0.02050000  0.49340000  1.0 0.0278201378
C  C9  1  0.99000000  0.66300000  0.93200000  1.0 -0.0528375926
C  C10  1  0.66300000  0.99000000  0.56800000  1.0 -0.0528375926
C  C11  1  0.01000000  0.33700000  0.06800000  1.0 -0.0528375926
C  C12  1  0.33700000  0.01000000  0.43200000  1.0 -0.0528375926
C  C13  1  0.92050000  0.75170000  0.88560000  1.0 0.3320035515
C  C14  1  0.75170000  0.92050000  0.61440000  1.0 0.3320035515
C  C15  1  0.07950000  0.24830000  0.11440000  1.0 0.3320035515
C  C16  1  0.24830000  0.07950000  0.38560000  1.0 0.3320035515
C  C17  1  0.84460000  0.82360000  0.90530000  1.0 -0.2001250824
C  C18  1  0.82360000  0.84460000  0.59470000  1.0 -0.2001250824
C  C19  1  0.15540000  0.17640000  0.09470000  1.0 -0.2001250824
C  C20  1  0.17640000  0.15540000  0.40530000  1.0 -0.2001250824
C  C21  1  0.83640000  0.80320000  0.96950000  1.0 0.1234457781
C  C22  1  0.80320000  0.83640000  0.53050000  1.0 0.1234457781
C  C23  1  0.16360000  0.19680000  0.03050000  1.0 0.1234457781
C  C24  1  0.19680000  0.16360000  0.46950000  1.0 0.1234457781
C  C25  1  0.77300000  0.92480000  0.86330000  1.0 0.6908219335
C  C26  1  0.92480000  0.77300000  0.63670000  1.0 0.6908219335
C  C27  1  0.22700000  0.07520000  0.13670000  1.0 0.6908219335
C  C28  1  0.07520000  0.22700000  0.36330000  1.0 0.6908219335
C  C29  1  0.25160000  0.80060000  0.99270000  1.0 -0.2155245366
C  C30  1  0.80060000  0.25160000  0.50730000  1.0 -0.2155245366
C  C31  1  0.74840000  0.19940000  0.00730000  1.0 -0.2155245366
C  C32  1  0.19940000  0.74840000  0.49270000  1.0 -0.2155245366
C  C33  1  0.17420000  0.89080000  0.99630000  1.0 0.072156488
C  C34  1  0.89080000  0.17420000  0.50370000  1.0 0.072156488
C  C35  1  0.82580000  0.10920000  0.00370000  1.0 0.072156488
C  C36  1  0.10920000  0.82580000  0.49630000  1.0 0.072156488
C  C37  1  0.10160000  0.94960000  0.94390000  1.0 -0.0559097557
C  C38  1  0.94960000  0.10160000  0.55610000  1.0 -0.0559097557
C  C39  1  0.89840000  0.05040000  0.05610000  1.0 -0.0559097557
C  C40  1  0.05040000  0.89840000  0.44390000  1.0 -0.0559097557
C  C41  1  0.10060000  0.92400000  0.88340000  1.0 0.3201236082
C  C42  1  0.92400000  0.10060000  0.61660000  1.0 0.3201236082
C  C43  1  0.89940000  0.07600000  0.11660000  1.0 0.3201236082
C  C44  1  0.07600000  0.89940000  0.38340000  1.0 0.3201236082
C  C45  1  0.18070000  0.83630000  0.88020000  1.0 -0.2001250824
C  C46  1  0.83630000  0.18070000  0.61980000  1.0 -0.2001250824
C  C47  1  0.81930000  0.16370000  0.11980000  1.0 -0.2001250824
C  C48  1  0.16370000  0.81930000  0.38020000  1.0 -0.2001250824
C  C49  1  0.25550000  0.77590000  0.93450000  1.0 0.1389961885
C  C50  1  0.77590000  0.25550000  0.56550000  1.0 0.1389961885
C  C51  1  0.74450000  0.22410000  0.06550000  1.0 0.1389961885
C  C52  1  0.22410000  0.74450000  0.43450000  1.0 0.1389961885
C  C53  1  0.18750000  0.79830000  0.82070000  1.0 0.6718802629
C  C54  1  0.79830000  0.18750000  0.67930000  1.0 0.6718802629
C  C55  1  0.81250000  0.20170000  0.17930000  1.0 0.6718802629
C  C56  1  0.20170000  0.81250000  0.32070000  1.0 0.6718802629
S  S1  1  0.88870000  0.68850000  0.09160000  1.0 1.1309784529
S  S2  1  0.68850000  0.88870000  0.40840000  1.0 1.1309784529
S  S3  1  0.11130000  0.31150000  0.90840000  1.0 1.1309784529
S  S4  1  0.31150000  0.11130000  0.59160000  1.0 1.1309784529
S  S5  1  0.34520000  0.71880000  0.05960000  1.0 1.2969288705
S  S6  1  0.71880000  0.34520000  0.44040000  1.0 1.2969288705
S  S7  1  0.65480000  0.28120000  0.94040000  1.0 1.2969288705
S  S8  1  0.28120000  0.65480000  0.55960000  1.0 1.2969288705
O  O1  1  0.36950000  0.03670000  0.95440000  1.0 -0.4991240027
O  O2  1  0.03670000  0.36950000  0.54560000  1.0 -0.4991240027
O  O3  1  0.63050000  0.96330000  0.04560000  1.0 -0.4991240027
O  O4  1  0.96330000  0.63050000  0.45440000  1.0 -0.4991240027
O  O5  1  0.53080000  0.82220000  0.93110000  1.0 -0.1819007555
O  O6  1  0.82220000  0.53080000  0.56890000  1.0 -0.1819007555
O  O7  1  0.46920000  0.17780000  0.06890000  1.0 -0.1819007555
O  O8  1  0.17780000  0.46920000  0.43110000  1.0 -0.1819007555
O  O9  1  0.99960000  0.67880000  0.13130000  1.0 -0.4124133783
O  O10  1  0.67880000  0.99960000  0.36870000  1.0 -0.4124133783
O  O11  1  0.00040000  0.32120000  0.86870000  1.0 -0.4124133783
O  O12  1  0.32120000  0.00040000  0.63130000  1.0 -0.4124133783
O  O13  1  0.80930000  0.77790000  0.09900000  1.0 -0.3584454926
O  O14  1  0.77790000  0.80930000  0.40100000  1.0 -0.3584454926
O  O15  1  0.19070000  0.22210000  0.90100000  1.0 -0.3584454926
O  O16  1  0.22210000  0.19070000  0.59900000  1.0 -0.3584454926
O  O17  1  0.93060000  0.76060000  0.82560000  1.0 -0.5779432234
O  O18  1  0.76060000  0.93060000  0.67440000  1.0 -0.5779432234
O  O19  1  0.06940000  0.23940000  0.17440000  1.0 -0.5713373664
O  O20  1  0.23940000  0.06940000  0.32560000  1.0 -0.5779432234
O  O21  1  0.70420000  0.98640000  0.88380000  1.0 -0.5779432234
O  O22  1  0.98640000  0.70420000  0.61620000  1.0 -0.5779432234
O  O23  1  0.29580000  0.01360000  0.11620000  1.0 -0.5779432234
O  O24  1  0.01360000  0.29580000  0.38380000  1.0 -0.5779432234
O  O25  1  0.78120000  0.95440000  0.80640000  1.0 -0.6408137056
O  O26  1  0.95440000  0.78120000  0.69360000  1.0 -0.6408137056
O  O27  1  0.21880000  0.04560000  0.19360000  1.0 -0.6408137056
O  O28  1  0.04560000  0.21880000  0.30640000  1.0 -0.6408137056
O  O29  1  0.27440000  0.61900000  0.08200000  1.0 -0.4412891763
O  O30  1  0.61900000  0.27440000  0.41800000  1.0 -0.4412891763
O  O31  1  0.72560000  0.38100000  0.91800000  1.0 -0.4412891763
O  O32  1  0.38100000  0.72560000  0.58200000  1.0 -0.4412891763
O  O33  1  0.43160000  0.66300000  0.04110000  1.0 -0.4991240027
O  O34  1  0.66300000  0.43160000  0.45890000  1.0 -0.4991240027
O  O35  1  0.56840000  0.33700000  0.95890000  1.0 -0.4991240027
O  O36  1  0.33700000  0.56840000  0.54110000  1.0 -0.4991240027
O  O37  1  0.34920000  0.77540000  0.10830000  1.0 -0.5779432234
O  O38  1  0.77540000  0.34920000  0.39170000  1.0 -0.5779432234
O  O39  1  0.65080000  0.22460000  0.89170000  1.0 -0.5779432234
O  O40  1  0.22460000  0.65080000  0.60830000  1.0 -0.5779432234
O  O41  1  0.02540000  0.98580000  0.83420000  1.0 -0.5296748998
O  O42  1  0.98580000  0.02540000  0.66580000  1.0 -0.5296748998
O  O43  1  0.97460000  0.01420000  0.16580000  1.0 -0.5296748998
O  O44  1  0.01420000  0.97460000  0.33420000  1.0 -0.5296748998
O  O45  1  0.26180000  0.72060000  0.81940000  1.0 -0.4782136502
O  O46  1  0.72060000  0.26180000  0.68060000  1.0 -0.4782136502
O  O47  1  0.73820000  0.27940000  0.18060000  1.0 -0.4782136502
O  O48  1  0.27940000  0.73820000  0.31940000  1.0 -0.4782136502
O  O49  1  0.11480000  0.84120000  0.77030000  1.0 -0.6408137056
O  O50  1  0.84120000  0.11480000  0.72970000  1.0 -0.6408137056
O  O51  1  0.88520000  0.15880000  0.22970000  1.0 -0.6408137056
O  O52  1  0.15880000  0.88520000  0.27030000  1.0 -0.6408137056
O  O53  1  0.87870000  0.14190000  0.85870000  1.0 0.0131729948
O  O54  1  0.14190000  0.87870000  0.64130000  1.0 0.0131729948
O  O55  1  0.12130000  0.85810000  0.14130000  1.0 0.0131729948
O  O56  1  0.85810000  0.12130000  0.35870000  1.0 0.0131729948
O  O57  1  0.59350000  0.06090000  0.70830000  1.0 -0.2560920241
O  O58  1  0.06090000  0.59350000  0.79170000  1.0 -0.2560920241
O  O59  1  0.40650000  0.93910000  0.29170000  1.0 -0.2560920241
O  O60  1  0.93910000  0.40650000  0.20830000  1.0 -0.2560920241
O  O61  1  0.48830000  0.12210000  0.81620000  1.0 -0.5713373664
O  O62  1  0.12210000  0.48830000  0.68380000  1.0 -0.5713373664
O  O63  1  0.51170000  0.87790000  0.18380000  1.0 -0.5713373664
O  O64  1  0.87790000  0.51170000  0.31620000  1.0 -0.5713373664
O  O65  1  0.51890000  0.31970000  0.73120000  1.0 -0.3584454926
O  O66  1  0.31970000  0.51890000  0.76880000  1.0 -0.3584454926
O  O67  1  0.48110000  0.68030000  0.26880000  1.0 -0.3584454926
O  O68  1  0.68030000  0.48110000  0.23120000  1.0 -0.3584454926
O  O69  1  0.74050000  0.36130000  0.79260000  1.0 -0.2867593589
O  O70  1  0.36130000  0.74050000  0.70740000  1.0 -0.2867593589
O  O71  1  0.25950000  0.63870000  0.20740000  1.0 -0.2867593589
O  O72  1  0.63870000  0.25950000  0.29260000  1.0 -0.2867593589
O  O73  1  0.31630000  0.45050000  0.99750000  1.0 -0.2560920241
O  O74  1  0.45050000  0.31630000  0.50250000  1.0 -0.2560920241
O  O75  1  0.68370000  0.54950000  0.00250000  1.0 -0.2560920241
O  O76  1  0.54950000  0.68370000  0.49750000  1.0 -0.2560920241
O  O77  1  0.45770000  0.59410000  0.89020000  1.0 -0.0337150684
O  O78  1  0.59410000  0.45770000  0.60980000  1.0 -0.0337150684
O  O79  1  0.54230000  0.40590000  0.10980000  1.0 -0.0337150684
O  O80  1  0.40590000  0.54230000  0.39020000  1.0 -0.0337150684
