# DDEC6 charges by PACMAN v1.1 (https://github.com/mtap-research/PACMAN-charge/)
data_YUDDEH_ASR_pacman
_symmetry_space_group_name_H-M   'P 1'
_cell_length_a   13.98390000
_cell_length_b   13.98390000
_cell_length_c   16.49760000
_cell_angle_alpha   78.82110000
_cell_angle_beta   101.17900000
_cell_angle_gamma   105.68500000
_symmetry_Int_Tables_number   1
_chemical_formula_structural   ZnH11C20N2O3
_chemical_formula_sum   'Zn4 H44 C80 N8 O12'
_cell_volume   3012.66443413
_cell_formula_units_Z   4
loop_
 _symmetry_equiv_pos_site_id
 _symmetry_equiv_pos_as_xyz
  1  'x, y, z'
loop_
 _atom_site_type_symbol
 _atom_site_label
 _atom_site_symmetry_multiplicity
 _atom_site_fract_x
 _atom_site_fract_y
 _atom_site_fract_z
 _atom_site_occupancy
 _atom_site_charge
Zn  Zn1  1  0.51652000  0.48348000  0.00533000  1.0 0.3545648852
Zn  Zn2  1  0.48348000  0.51652000  0.99467000  1.0 0.3545648852
Zn  Zn3  1  0.06845000  0.93155000  0.52362000  1.0 0.7981177666
Zn  Zn4  1  0.93155000  0.06845000  0.47638000  1.0 0.7981177666
H  H1  1  0.20560000  0.20520000  0.07440000  1.0 0.1275596418
H  H2  1  0.20520000  0.20560000  0.92560000  1.0 0.1275596418
H  H3  1  0.79440000  0.79480000  0.92560000  1.0 0.1275596418
H  H4  1  0.79480000  0.79440000  0.07440000  1.0 0.1275596418
H  H5  1  0.42810000  0.42790000  0.30220000  1.0 0.114835287
H  H6  1  0.42790000  0.42810000  0.69780000  1.0 0.1217198443
H  H7  1  0.57190000  0.57210000  0.69780000  1.0 0.1217198443
H  H8  1  0.57210000  0.57190000  0.30220000  1.0 0.1217198443
H  H9  1  0.38360000  0.20620000  0.26780000  1.0 0.1217198443
H  H10  1  0.20620000  0.38360000  0.73220000  1.0 0.1217198443
H  H11  1  0.61640000  0.79380000  0.73220000  1.0 0.1217198443
H  H12  1  0.79380000  0.61640000  0.26780000  1.0 0.1217198443
H  H13  1  0.28380000  0.11040000  0.36440000  1.0 0.1217198443
H  H14  1  0.11040000  0.28380000  0.63560000  1.0 0.1217198443
H  H15  1  0.71620000  0.88960000  0.63560000  1.0 0.1217198443
H  H16  1  0.88960000  0.71620000  0.36440000  1.0 0.1217198443
H  H17  1  0.08030000  0.26830000  0.27390000  1.0 0.1217198443
H  H18  1  0.26830000  0.08030000  0.72610000  1.0 0.1217198443
H  H19  1  0.91970000  0.73170000  0.72610000  1.0 0.1217198443
H  H20  1  0.73170000  0.91970000  0.27390000  1.0 0.1217198443
H  H21  1  0.17840000  0.36140000  0.17510000  1.0 0.1217198443
H  H22  1  0.36140000  0.17840000  0.82490000  1.0 0.1217198443
H  H23  1  0.82160000  0.63860000  0.82490000  1.0 0.1217198443
H  H24  1  0.63860000  0.82160000  0.17510000  1.0 0.1217198443
H  H25  1  0.25940000  0.66666667  0.65450000  1.0 0.077215007
H  H26  1  0.66666667  0.25940000  0.34550000  1.0 0.077215007
H  H27  1  0.74060000  0.33340000  0.34550000  1.0 0.077215007
H  H28  1  0.33340000  0.74060000  0.65450000  1.0 0.077215007
H  H29  1  0.17800000  0.87320000  0.41600000  1.0 0.0921298866
H  H30  1  0.87320000  0.17800000  0.58400000  1.0 0.0921298866
H  H31  1  0.82200000  0.12680000  0.58400000  1.0 0.0921298866
H  H32  1  0.12680000  0.82200000  0.41600000  1.0 0.0921298866
H  H33  1  0.64170000  0.73910000  0.51420000  1.0 0.1275596418
H  H34  1  0.73910000  0.64170000  0.48580000  1.0 0.1275596418
H  H35  1  0.35830000  0.26090000  0.48580000  1.0 0.1275596418
H  H36  1  0.26090000  0.35830000  0.51420000  1.0 0.1275596418
H  H37  1  0.77560000  0.15680000  0.35240000  1.0 0.0664272239
H  H38  1  0.15680000  0.77560000  0.64760000  1.0 0.0664272239
H  H39  1  0.22440000  0.84320000  0.64760000  1.0 0.0664272239
H  H40  1  0.84320000  0.22440000  0.35240000  1.0 0.0664272239
H  H41  1  0.71610000  0.22610000  0.58340000  1.0 0.0921298866
H  H42  1  0.22610000  0.71610000  0.41660000  1.0 0.0921298866
H  H43  1  0.28390000  0.77390000  0.41660000  1.0 0.0921298866
H  H44  1  0.77390000  0.28390000  0.58340000  1.0 0.0921298866
C  C1  1  0.33078000  0.33064000  0.06635000  1.0 0.1470919711
C  C2  1  0.33064000  0.33078000  0.93365000  1.0 0.1470919711
C  C3  1  0.66922000  0.66936000  0.93365000  1.0 0.1470919711
C  C4  1  0.66936000  0.66922000  0.06635000  1.0 0.1449759999
C  C5  1  0.24979000  0.24961000  0.04086000  1.0 -0.1822964362
C  C6  1  0.24961000  0.24979000  0.95914000  1.0 -0.1822964362
C  C7  1  0.75021000  0.75039000  0.95914000  1.0 -0.1822964362
C  C8  1  0.75039000  0.75021000  0.04086000  1.0 -0.1822964362
C  C9  1  0.35607000  0.35565000  0.14776000  1.0 -0.0597515539
C  C10  1  0.35565000  0.35607000  0.85224000  1.0 -0.0597515539
C  C11  1  0.64393000  0.64435000  0.85224000  1.0 -0.0597515539
C  C12  1  0.64435000  0.64393000  0.14776000  1.0 -0.0597515539
C  C13  1  0.43637000  0.43371000  0.17381000  1.0 0.1470919711
C  C14  1  0.43371000  0.43637000  0.82619000  1.0 0.1470919711
C  C15  1  0.56363000  0.56629000  0.82619000  1.0 0.1470919711
C  C16  1  0.56629000  0.56363000  0.17381000  1.0 0.1470919711
C  C17  1  0.46112000  0.46008000  0.25689000  1.0 -0.1822964362
C  C18  1  0.46008000  0.46112000  0.74311000  1.0 -0.1822964362
C  C19  1  0.53888000  0.53992000  0.74311000  1.0 -0.1822964362
C  C20  1  0.53992000  0.53888000  0.25689000  1.0 -0.1822964362
C  C21  1  0.29183000  0.29311000  0.21108000  1.0 0.0664272239
C  C22  1  0.29311000  0.29183000  0.78892000  1.0 0.0664272239
C  C23  1  0.70817000  0.70689000  0.78892000  1.0 0.0664272239
C  C24  1  0.70689000  0.70817000  0.21108000  1.0 0.0664272239
C  C25  1  0.32165000  0.21875000  0.26787000  1.0 -0.1364168538
C  C26  1  0.21875000  0.32165000  0.73213000  1.0 -0.1364168538
C  C27  1  0.67835000  0.78125000  0.73213000  1.0 -0.1364168538
C  C28  1  0.78125000  0.67835000  0.26787000  1.0 -0.1364168538
C  C29  1  0.26158000  0.16096000  0.32619000  1.0 -0.1098985853
C  C30  1  0.16096000  0.26158000  0.67381000  1.0 -0.1098985853
C  C31  1  0.73842000  0.83904000  0.67381000  1.0 -0.1098985853
C  C32  1  0.83904000  0.73842000  0.32619000  1.0 -0.1098985853
C  C33  1  0.17055000  0.17735000  0.32810000  1.0 -0.0162472273
C  C34  1  0.17735000  0.17055000  0.67190000  1.0 -0.0162472273
C  C35  1  0.82945000  0.82265000  0.67190000  1.0 -0.0162472273
C  C36  1  0.82265000  0.82945000  0.32810000  1.0 -0.0162472273
C  C37  1  0.14107000  0.25405000  0.27230000  1.0 -0.1098985853
C  C38  1  0.25405000  0.14107000  0.72770000  1.0 -0.1098985853
C  C39  1  0.85893000  0.74595000  0.72770000  1.0 -0.1098985853
C  C40  1  0.74595000  0.85893000  0.27230000  1.0 -0.1098985853
C  C41  1  0.20055000  0.31079000  0.21340000  1.0 -0.1470344044
C  C42  1  0.31079000  0.20055000  0.78660000  1.0 -0.1470344044
C  C43  1  0.79945000  0.68921000  0.78660000  1.0 -0.1470344044
C  C44  1  0.68921000  0.79945000  0.21340000  1.0 -0.1470344044
C  C45  1  0.10447000  0.11367000  0.38990000  1.0 0.5666449466
C  C46  1  0.11367000  0.10447000  0.61010000  1.0 0.5666449466
C  C47  1  0.89553000  0.88633000  0.61010000  1.0 0.5666449466
C  C48  1  0.88633000  0.89553000  0.38990000  1.0 0.5666449466
C  C49  1  0.28569000  0.71431000  0.53510000  1.0 0.0023920573
C  C50  1  0.71431000  0.28569000  0.46490000  1.0 0.0062323538
C  C51  1  0.18403000  0.77617000  0.60030000  1.0 0.0241072899
C  C52  1  0.77617000  0.18403000  0.39970000  1.0 0.0241072899
C  C53  1  0.81597000  0.22383000  0.39970000  1.0 0.0241072899
C  C54  1  0.22383000  0.81597000  0.60030000  1.0 0.0241072899
C  C55  1  0.24605000  0.71015000  0.60590000  1.0 -0.0488492842
C  C56  1  0.71015000  0.24605000  0.39410000  1.0 -0.0488492842
C  C57  1  0.75395000  0.28985000  0.39410000  1.0 -0.0488492842
C  C58  1  0.28985000  0.75395000  0.60590000  1.0 -0.0488492842
C  C59  1  0.22663000  0.74037000  0.46540000  1.0 -0.0412230226
C  C60  1  0.74037000  0.22663000  0.53460000  1.0 -0.0412230226
C  C61  1  0.77337000  0.25963000  0.53460000  1.0 -0.0412230226
C  C62  1  0.25963000  0.77337000  0.46540000  1.0 -0.0412230226
C  C63  1  0.16625000  0.80315000  0.46570000  1.0 0.0062323538
C  C64  1  0.80315000  0.16625000  0.53430000  1.0 0.0062323538
C  C65  1  0.83375000  0.19685000  0.53430000  1.0 0.0062323538
C  C66  1  0.19685000  0.83375000  0.46570000  1.0 0.0062323538
C  C67  1  0.45144000  0.69592000  0.52940000  1.0 0.4323662618
C  C68  1  0.69592000  0.45144000  0.47060000  1.0 0.4323662618
C  C69  1  0.54856000  0.30408000  0.47060000  1.0 0.4323662618
C  C70  1  0.30408000  0.54856000  0.52940000  1.0 0.4323662618
C  C71  1  0.51395000  0.63185000  0.51433000  1.0 -0.0412230226
C  C72  1  0.63185000  0.51395000  0.48567000  1.0 -0.0412230226
C  C73  1  0.48605000  0.36815000  0.48567000  1.0 -0.0412230226
C  C74  1  0.36815000  0.48605000  0.51433000  1.0 -0.0412230226
C  C75  1  0.61312000  0.67214000  0.50795000  1.0 -0.0997235249
C  C76  1  0.67214000  0.61312000  0.49205000  1.0 -0.0997235249
C  C77  1  0.38688000  0.32786000  0.49205000  1.0 -0.0997235249
C  C78  1  0.32786000  0.38688000  0.50795000  1.0 -0.0997235249
C  C79  1  0.47013000  0.52987000  0.50790000  1.0 0.0260125646
C  C80  1  0.52987000  0.47013000  0.49210000  1.0 0.0260125646
N  N1  1  0.37928000  0.37928000  0.00000000  1.0 -0.2994323424
N  N2  1  0.62072000  0.62072000  0.00000000  1.0 -0.2994323424
N  N3  1  0.50107000  0.49893000  0.12350000  1.0 -0.2994323424
N  N4  1  0.49893000  0.50107000  0.87650000  1.0 -0.2994323424
N  N5  1  0.16212000  0.83788000  0.53370000  1.0 -0.1822964362
N  N6  1  0.83788000  0.16212000  0.46630000  1.0 -0.1822964362
N  N7  1  0.35067000  0.64933000  0.53305000  1.0 -0.3244856945
N  N8  1  0.64933000  0.35067000  0.46695000  1.0 -0.3244856945
O  O1  1  0.13076000  0.03848000  0.43236000  1.0 -0.5354204527
O  O2  1  0.03848000  0.13076000  0.56764000  1.0 -0.5354204527
O  O3  1  0.86924000  0.96152000  0.56764000  1.0 -0.5354204527
O  O4  1  0.96152000  0.86924000  0.43236000  1.0 -0.5354204527
O  O5  1  0.02712000  0.14042000  0.39370000  1.0 -0.5155346594
O  O6  1  0.14042000  0.02712000  0.60630000  1.0 -0.5155346594
O  O7  1  0.97288000  0.85958000  0.60630000  1.0 -0.5155346594
O  O8  1  0.85958000  0.97288000  0.39370000  1.0 -0.5155346594
O  O9  1  0.48507000  0.78287000  0.53750000  1.0 -0.3921986497
O  O10  1  0.78287000  0.48507000  0.46250000  1.0 -0.3921986497
O  O11  1  0.51493000  0.21713000  0.46250000  1.0 -0.3921986497
O  O12  1  0.21713000  0.51493000  0.53750000  1.0 -0.3921986497
