# DDEC6 charges by PACMAN v1.1 (https://github.com/mtap-research/PACMAN-charge/)
data_YUDFOU_FSR_pacman
_symmetry_space_group_name_H-M   'P 1'
_cell_length_a   14.76780000
_cell_length_b   14.76780000
_cell_length_c   26.14000000
_cell_angle_alpha   85.82640000
_cell_angle_beta   94.17360000
_cell_angle_gamma   119.13200000
_symmetry_Int_Tables_number   1
_chemical_formula_structural   GdH12C24N7O22
_chemical_formula_sum   'Gd4 H48 C96 N28 O88'
_cell_volume   4961.89578025
_cell_formula_units_Z   4
loop_
 _symmetry_equiv_pos_site_id
 _symmetry_equiv_pos_as_xyz
  1  'x, y, z'
loop_
 _atom_site_type_symbol
 _atom_site_label
 _atom_site_symmetry_multiplicity
 _atom_site_fract_x
 _atom_site_fract_y
 _atom_site_fract_z
 _atom_site_occupancy
 _atom_site_charge
Gd  Gd1  1  0.38805000  0.08453000  0.99342000  1.0 2.0464290668
Gd  Gd2  1  0.08453000  0.38805000  0.50658000  1.0 2.0464290668
Gd  Gd3  1  0.61195000  0.91547000  0.00658000  1.0 2.0464290668
Gd  Gd4  1  0.91547000  0.61195000  0.49342000  1.0 2.0464290668
H  H1  1  0.50080000  0.87640000  0.17110000  1.0 0.1518138756
H  H2  1  0.87640000  0.50080000  0.32890000  1.0 0.1518138756
H  H3  1  0.49920000  0.12360000  0.82890000  1.0 0.1518138756
H  H4  1  0.12360000  0.49920000  0.67110000  1.0 0.1518138756
H  H5  1  0.26880000  0.92760000  0.11110000  1.0 0.1518138756
H  H6  1  0.92760000  0.26880000  0.38890000  1.0 0.1518138756
H  H7  1  0.73120000  0.07240000  0.88890000  1.0 0.1518138756
H  H8  1  0.07240000  0.73120000  0.61110000  1.0 0.1518138756
H  H9  1  0.11300000  0.66380000  0.36290000  1.0 0.1611989689
H  H10  1  0.66380000  0.11300000  0.13710000  1.0 0.1611989689
H  H11  1  0.88700000  0.33620000  0.63710000  1.0 0.1611989689
H  H12  1  0.33620000  0.88700000  0.86290000  1.0 0.1611989689
H  H13  1  0.25210000  0.96990000  0.38040000  1.0 0.1518138756
H  H14  1  0.96990000  0.25210000  0.11960000  1.0 0.1518138756
H  H15  1  0.74790000  0.03010000  0.61960000  1.0 0.1518138756
H  H16  1  0.03010000  0.74790000  0.88040000  1.0 0.1518138756
H  H17  1  0.52930000  0.28530000  0.19900000  1.0 0.1518138756
H  H18  1  0.28530000  0.52930000  0.30100000  1.0 0.1518138756
H  H19  1  0.47070000  0.71470000  0.80100000  1.0 0.1518138756
H  H20  1  0.71470000  0.47070000  0.69900000  1.0 0.1518138756
H  H21  1  0.25660000  0.15600000  0.12110000  1.0 0.1518138756
H  H22  1  0.15600000  0.25660000  0.37890000  1.0 0.1518138756
H  H23  1  0.74340000  0.84400000  0.87890000  1.0 0.1518138756
H  H24  1  0.84400000  0.74340000  0.62110000  1.0 0.1518138756
H  H25  1  0.20730000  0.06790000  0.78680000  1.0 0.1418604459
H  H26  1  0.06790000  0.20730000  0.71320000  1.0 0.1418604459
H  H27  1  0.79270000  0.93210000  0.21320000  1.0 0.1418604459
H  H28  1  0.93210000  0.79270000  0.28680000  1.0 0.1418604459
H  H29  1  0.30860000  0.13220000  0.82040000  1.0 0.1611989689
H  H30  1  0.13220000  0.30860000  0.67960000  1.0 0.1611989689
H  H31  1  0.69140000  0.86780000  0.17960000  1.0 0.1611989689
H  H32  1  0.86780000  0.69140000  0.32040000  1.0 0.1611989689
H  H33  1  0.24350000  0.01170000  0.83000000  1.0 0.1418604459
H  H34  1  0.01170000  0.24350000  0.67000000  1.0 0.1418604459
H  H35  1  0.75650000  0.98830000  0.17000000  1.0 0.1418604459
H  H36  1  0.98830000  0.75650000  0.33000000  1.0 0.1418604459
H  H37  1  0.07610000  0.07250000  0.80140000  1.0 0.1327277151
H  H38  1  0.07250000  0.07610000  0.69860000  1.0 0.1327277151
H  H39  1  0.92390000  0.92750000  0.19860000  1.0 0.1327277151
H  H40  1  0.92750000  0.92390000  0.30140000  1.0 0.1327277151
H  H41  1  0.03040000  0.01740000  0.85410000  1.0 0.1418604459
H  H42  1  0.01740000  0.03040000  0.64590000  1.0 0.1418604459
H  H43  1  0.96960000  0.98260000  0.14590000  1.0 0.1418604459
H  H44  1  0.98260000  0.96960000  0.35410000  1.0 0.1418604459
H  H45  1  0.08140000  0.13840000  0.84710000  1.0 0.1418604459
H  H46  1  0.13840000  0.08140000  0.65290000  1.0 0.1418604459
H  H47  1  0.91860000  0.86160000  0.15290000  1.0 0.1418604459
H  H48  1  0.86160000  0.91860000  0.34710000  1.0 0.1418604459
C  C1  1  0.43710000  0.92350000  0.07990000  1.0 0.623628963
C  C2  1  0.92350000  0.43710000  0.42010000  1.0 0.623628963
C  C3  1  0.56290000  0.07650000  0.92010000  1.0 0.6252794554
C  C4  1  0.07650000  0.56290000  0.57990000  1.0 0.623628963
C  C5  1  0.39300000  0.90400000  0.13170000  1.0 -0.0021569415
C  C6  1  0.90400000  0.39300000  0.36830000  1.0 -0.0021569415
C  C7  1  0.60700000  0.09600000  0.86830000  1.0 -0.0021569415
C  C8  1  0.09600000  0.60700000  0.63170000  1.0 -0.0021569415
C  C9  1  0.44120000  0.88140000  0.17480000  1.0 -0.0912617697
C  C10  1  0.88140000  0.44120000  0.32520000  1.0 -0.0912617697
C  C11  1  0.55880000  0.11860000  0.82520000  1.0 -0.0912617697
C  C12  1  0.11860000  0.55880000  0.67480000  1.0 -0.0912617697
C  C13  1  0.40190000  0.86630000  0.22270000  1.0 0.037764127
C  C14  1  0.86630000  0.40190000  0.27730000  1.0 0.037764127
C  C15  1  0.59810000  0.13370000  0.77730000  1.0 0.037764127
C  C16  1  0.13370000  0.59810000  0.72270000  1.0 0.037764127
C  C17  1  0.30960000  0.86560000  0.23150000  1.0 0.0109117871
C  C18  1  0.86560000  0.30960000  0.26850000  1.0 0.0109117871
C  C19  1  0.69040000  0.13440000  0.76850000  1.0 0.0109117871
C  C20  1  0.13440000  0.69040000  0.73150000  1.0 0.0109117871
C  C21  1  0.26300000  0.88720000  0.18750000  1.0 0.0476656141
C  C22  1  0.88720000  0.26300000  0.31250000  1.0 0.0476656141
C  C23  1  0.73700000  0.11280000  0.81250000  1.0 0.0476656141
C  C24  1  0.11280000  0.73700000  0.68750000  1.0 0.0476656141
C  C25  1  0.30180000  0.90960000  0.13840000  1.0 -0.1095164968
C  C26  1  0.90960000  0.30180000  0.36160000  1.0 -0.1095164968
C  C27  1  0.69820000  0.09040000  0.86160000  1.0 -0.1095164968
C  C28  1  0.09040000  0.69820000  0.63840000  1.0 -0.1095164968
C  C29  1  0.26690000  0.85050000  0.28440000  1.0 0.0109117871
C  C30  1  0.85050000  0.26690000  0.21560000  1.0 0.0109117871
C  C31  1  0.73310000  0.14950000  0.71560000  1.0 0.0109117871
C  C32  1  0.14950000  0.73310000  0.78440000  1.0 0.0109117871
C  C33  1  0.20170000  0.74930000  0.30540000  1.0 0.037764127
C  C34  1  0.74930000  0.20170000  0.19460000  1.0 0.037764127
C  C35  1  0.79830000  0.25070000  0.69460000  1.0 0.037764127
C  C36  1  0.25070000  0.79830000  0.80540000  1.0 0.037764127
C  C37  1  0.15690000  0.73150000  0.35120000  1.0 -0.0974610383
C  C38  1  0.73150000  0.15690000  0.14880000  1.0 -0.0974610383
C  C39  1  0.84310000  0.26850000  0.64880000  1.0 -0.0974610383
C  C40  1  0.26850000  0.84310000  0.85120000  1.0 -0.0974610383
C  C41  1  0.17570000  0.81210000  0.38020000  1.0 0.0109117871
C  C42  1  0.81210000  0.17570000  0.11980000  1.0 0.0109117871
C  C43  1  0.82430000  0.18790000  0.61980000  1.0 0.0109117871
C  C44  1  0.18790000  0.82430000  0.88020000  1.0 0.0109117871
C  C45  1  0.23960000  0.91380000  0.36140000  1.0 -0.1095164968
C  C46  1  0.91380000  0.23960000  0.13860000  1.0 -0.1095164968
C  C47  1  0.76040000  0.08620000  0.63860000  1.0 -0.1095164968
C  C48  1  0.08620000  0.76040000  0.86140000  1.0 -0.1095164968
C  C49  1  0.28360000  0.93000000  0.31450000  1.0 0.0476656141
C  C50  1  0.93000000  0.28360000  0.18550000  1.0 0.0476656141
C  C51  1  0.71640000  0.07000000  0.68550000  1.0 0.0476656141
C  C52  1  0.07000000  0.71640000  0.81450000  1.0 0.0476656141
C  C53  1  0.12690000  0.79630000  0.43210000  1.0 0.5580161353
C  C54  1  0.79630000  0.12690000  0.06790000  1.0 0.5580161353
C  C55  1  0.87310000  0.20370000  0.56790000  1.0 0.5580161353
C  C56  1  0.20370000  0.87310000  0.93210000  1.0 0.5580161353
C  C57  1  0.44840000  0.18660000  0.11260000  1.0 0.5847465237
C  C58  1  0.18660000  0.44840000  0.38740000  1.0 0.5847465237
C  C59  1  0.55160000  0.81340000  0.88740000  1.0 0.5847465237
C  C60  1  0.81340000  0.55160000  0.61260000  1.0 0.5847465237
C  C61  1  0.40090000  0.21650000  0.15410000  1.0 0.0109117871
C  C62  1  0.21650000  0.40090000  0.34590000  1.0 0.0109117871
C  C63  1  0.59910000  0.78350000  0.84590000  1.0 0.0109117871
C  C64  1  0.78350000  0.59910000  0.65410000  1.0 0.0109117871
C  C65  1  0.45970000  0.26810000  0.19570000  1.0 -0.0974610383
C  C66  1  0.26810000  0.45970000  0.30430000  1.0 -0.0974610383
C  C67  1  0.54030000  0.73190000  0.80430000  1.0 -0.0974610383
C  C68  1  0.73190000  0.54030000  0.69570000  1.0 -0.0974610383
C  C69  1  0.41650000  0.29510000  0.23320000  1.0 0.0109117871
C  C70  1  0.29510000  0.41650000  0.26680000  1.0 0.0109117871
C  C71  1  0.58350000  0.70490000  0.76680000  1.0 0.0109117871
C  C72  1  0.70490000  0.58350000  0.73320000  1.0 0.0109117871
C  C73  1  0.31340000  0.27360000  0.23040000  1.0 0.0184445777
C  C74  1  0.27360000  0.31340000  0.26960000  1.0 0.0184445777
C  C75  1  0.68660000  0.72640000  0.76960000  1.0 0.0184445777
C  C76  1  0.72640000  0.68660000  0.73040000  1.0 0.0184445777
C  C77  1  0.25480000  0.21980000  0.18690000  1.0 0.037764127
C  C78  1  0.21980000  0.25480000  0.31310000  1.0 0.037764127
C  C79  1  0.74520000  0.78020000  0.81310000  1.0 0.037764127
C  C80  1  0.78020000  0.74520000  0.68690000  1.0 0.037764127
C  C81  1  0.29750000  0.19150000  0.14930000  1.0 -0.0912617697
C  C82  1  0.19150000  0.29750000  0.35070000  1.0 -0.0912617697
C  C83  1  0.70250000  0.80850000  0.85070000  1.0 -0.0912617697
C  C84  1  0.80850000  0.70250000  0.64930000  1.0 -0.0912617697
C  C85  1  0.24000000  0.07400000  0.82050000  1.0 -0.2137143473
C  C86  1  0.07400000  0.24000000  0.67950000  1.0 -0.2137143473
C  C87  1  0.76000000  0.92600000  0.17950000  1.0 -0.2137143473
C  C88  1  0.92600000  0.76000000  0.32050000  1.0 -0.2137143473
C  C89  1  0.08470000  0.07830000  0.83800000  1.0 -0.2885208239
C  C90  1  0.07830000  0.08470000  0.66200000  1.0 -0.2885208239
C  C91  1  0.91530000  0.92170000  0.16200000  1.0 -0.2804831366
C  C92  1  0.92170000  0.91530000  0.33800000  1.0 -0.2804831366
C  C93  1  0.21170000  0.10070000  0.90280000  1.0 0.4003948187
C  C94  1  0.10070000  0.21170000  0.59720000  1.0 0.4003948187
C  C95  1  0.78830000  0.89930000  0.09720000  1.0 0.4003948187
C  C96  1  0.89930000  0.78830000  0.40280000  1.0 0.4003948187
N  N1  1  0.16530000  0.89070000  0.19180000  1.0 0.5023531904
N  N2  1  0.89070000  0.16530000  0.30820000  1.0 0.5023531904
N  N3  1  0.83470000  0.10930000  0.80820000  1.0 0.5023531904
N  N4  1  0.10930000  0.83470000  0.69180000  1.0 0.5023531904
N  N5  1  0.46240000  0.84780000  0.26530000  1.0 0.5186063935
N  N6  1  0.84780000  0.46240000  0.23470000  1.0 0.5186063935
N  N7  1  0.53760000  0.15220000  0.73470000  1.0 0.5186063935
N  N8  1  0.15220000  0.53760000  0.76530000  1.0 0.5186063935
N  N9  1  0.17840000  0.65800000  0.27590000  1.0 0.5364528735
N  N10  1  0.65800000  0.17840000  0.22410000  1.0 0.5364528735
N  N11  1  0.82160000  0.34200000  0.72410000  1.0 0.5364528735
N  N12  1  0.34200000  0.82160000  0.77590000  1.0 0.5364528735
N  N13  1  0.35570000  0.04210000  0.29920000  1.0 0.5279084732
N  N14  1  0.04210000  0.35570000  0.20080000  1.0 0.5279084732
N  N15  1  0.64430000  0.95790000  0.70080000  1.0 0.5279084732
N  N16  1  0.95790000  0.64430000  0.79920000  1.0 0.5279084732
N  N17  1  0.14660000  0.19620000  0.17720000  1.0 0.4845556309
N  N18  1  0.19620000  0.14660000  0.32280000  1.0 0.4879321148
N  N19  1  0.85340000  0.80380000  0.82280000  1.0 0.4879321148
N  N20  1  0.80380000  0.85340000  0.67720000  1.0 0.4879321148
N  N21  1  0.48340000  0.34680000  0.27800000  1.0 0.5186063935
N  N22  1  0.34680000  0.48340000  0.22200000  1.0 0.5186063935
N  N23  1  0.51660000  0.65320000  0.72200000  1.0 0.5186063935
N  N24  1  0.65320000  0.51660000  0.77800000  1.0 0.5186063935
N  N25  1  0.18310000  0.08770000  0.85490000  1.0 -0.0320832562
N  N26  1  0.08770000  0.18310000  0.64510000  1.0 -0.0320832562
N  N27  1  0.81690000  0.91230000  0.14510000  1.0 -0.0320832562
N  N28  1  0.91230000  0.81690000  0.35490000  1.0 -0.0320832562
O  O1  1  0.40210000  0.95770000  0.04450000  1.0 -0.5852020095
O  O2  1  0.95770000  0.40210000  0.45550000  1.0 -0.5852020095
O  O3  1  0.59790000  0.04230000  0.95550000  1.0 -0.5852020095
O  O4  1  0.04230000  0.59790000  0.54450000  1.0 -0.5852020095
O  O5  1  0.51230000  0.90390000  0.07630000  1.0 -0.6166192601
O  O6  1  0.90390000  0.51230000  0.42370000  1.0 -0.6166192601
O  O7  1  0.48770000  0.09610000  0.92370000  1.0 -0.6166192601
O  O8  1  0.09610000  0.48770000  0.57630000  1.0 -0.6166192601
O  O9  1  0.21210000  0.99930000  0.02280000  1.0 -0.3372778604
O  O10  1  0.99930000  0.21210000  0.47720000  1.0 -0.3372778604
O  O11  1  0.78790000  0.00070000  0.97720000  1.0 -0.3372778604
O  O12  1  0.00070000  0.78790000  0.52280000  1.0 -0.3372778604
O  O13  1  0.15190000  0.95390000  0.16300000  1.0 -0.2991519382
O  O14  1  0.95390000  0.15190000  0.33700000  1.0 -0.2991519382
O  O15  1  0.84810000  0.04610000  0.83700000  1.0 -0.2991519382
O  O16  1  0.04610000  0.84810000  0.66300000  1.0 -0.2991519382
O  O17  1  0.44100000  0.26380000  0.98100000  1.0 -0.6508292864
O  O18  1  0.26380000  0.44100000  0.51900000  1.0 -0.6345053623
O  O19  1  0.55900000  0.73620000  0.01900000  1.0 -0.6345053623
O  O20  1  0.73620000  0.55900000  0.48100000  1.0 -0.6508292864
O  O21  1  0.10310000  0.82970000  0.22190000  1.0 -0.2991519382
O  O22  1  0.82970000  0.10310000  0.27810000  1.0 -0.2991519382
O  O23  1  0.89690000  0.17030000  0.77810000  1.0 -0.2991519382
O  O24  1  0.17030000  0.89690000  0.72190000  1.0 -0.2991519382
O  O25  1  0.56880000  0.16880000  0.02740000  1.0 0.0261755576
O  O26  1  0.16880000  0.56880000  0.47260000  1.0 0.0109117871
O  O27  1  0.43120000  0.83120000  0.97260000  1.0 0.0109117871
O  O28  1  0.83120000  0.43120000  0.52740000  1.0 0.0184445777
O  O29  1  0.53070000  0.82790000  0.25610000  1.0 -0.2804831366
O  O30  1  0.82790000  0.53070000  0.24390000  1.0 -0.2804831366
O  O31  1  0.46930000  0.17210000  0.74390000  1.0 -0.2804831366
O  O32  1  0.17210000  0.46930000  0.75610000  1.0 -0.2804831366
O  O33  1  0.44810000  0.86110000  0.30990000  1.0 -0.3171552057
O  O34  1  0.86110000  0.44810000  0.19010000  1.0 -0.3171552057
O  O35  1  0.55190000  0.13890000  0.69010000  1.0 -0.3171552057
O  O36  1  0.13890000  0.55190000  0.80990000  1.0 -0.3171552057
O  O37  1  0.36620000  0.05880000  0.25330000  1.0 -0.2885208239
O  O38  1  0.05880000  0.36620000  0.24670000  1.0 -0.2885208239
O  O39  1  0.63380000  0.94120000  0.74670000  1.0 -0.2885208239
O  O40  1  0.94120000  0.63380000  0.75330000  1.0 -0.2885208239
O  O41  1  0.39290000  0.10550000  0.33180000  1.0 -0.2617639984
O  O42  1  0.10550000  0.39290000  0.16820000  1.0 -0.2617639984
O  O43  1  0.60710000  0.89450000  0.66820000  1.0 -0.2617639984
O  O44  1  0.89450000  0.60710000  0.83180000  1.0 -0.2617639984
O  O45  1  0.24920000  0.65840000  0.25550000  1.0 -0.2713648911
O  O46  1  0.65840000  0.24920000  0.24450000  1.0 -0.2713648911
O  O47  1  0.75080000  0.34160000  0.74450000  1.0 -0.2713648911
O  O48  1  0.34160000  0.75080000  0.75550000  1.0 -0.2713648911
O  O49  1  0.08630000  0.58890000  0.27450000  1.0 -0.3094802956
O  O50  1  0.58890000  0.08630000  0.22550000  1.0 -0.3094802956
O  O51  1  0.91370000  0.41110000  0.72550000  1.0 -0.3094802956
O  O52  1  0.41110000  0.91370000  0.77450000  1.0 -0.3094802956
O  O53  1  0.13900000  0.87640000  0.45140000  1.0 -0.4536154354
O  O54  1  0.87640000  0.13900000  0.04860000  1.0 -0.4536154354
O  O55  1  0.86100000  0.12360000  0.54860000  1.0 -0.4536154354
O  O56  1  0.12360000  0.86100000  0.95140000  1.0 -0.4536154354
O  O57  1  0.07690000  0.70550000  0.44940000  1.0 -0.5719478289
O  O58  1  0.70550000  0.07690000  0.05060000  1.0 -0.5719478289
O  O59  1  0.92310000  0.29450000  0.55060000  1.0 -0.5719478289
O  O60  1  0.29450000  0.92310000  0.94940000  1.0 -0.5719478289
O  O61  1  0.39140000  0.14780000  0.07400000  1.0 -0.560042427
O  O62  1  0.14780000  0.39140000  0.42600000  1.0 -0.560042427
O  O63  1  0.60860000  0.85220000  0.92600000  1.0 -0.560042427
O  O64  1  0.85220000  0.60860000  0.57400000  1.0 -0.560042427
O  O65  1  0.53810000  0.20230000  0.12100000  1.0 -0.4747062037
O  O66  1  0.20230000  0.53810000  0.37900000  1.0 -0.4767979692
O  O67  1  0.46190000  0.79770000  0.87900000  1.0 -0.4767979692
O  O68  1  0.79770000  0.46190000  0.62100000  1.0 -0.4747062037
O  O69  1  0.10890000  0.17730000  0.13480000  1.0 -0.248787419
O  O70  1  0.17730000  0.10890000  0.36520000  1.0 -0.248787419
O  O71  1  0.89110000  0.82270000  0.86520000  1.0 -0.248787419
O  O72  1  0.82270000  0.89110000  0.63480000  1.0 -0.248787419
O  O73  1  0.09900000  0.19580000  0.21410000  1.0 -0.3253438408
O  O74  1  0.19580000  0.09900000  0.28590000  1.0 -0.3253438408
O  O75  1  0.90100000  0.80420000  0.78590000  1.0 -0.3253438408
O  O76  1  0.80420000  0.90100000  0.71410000  1.0 -0.3253438408
O  O77  1  0.57580000  0.40000000  0.27020000  1.0 -0.2804831366
O  O78  1  0.40000000  0.57580000  0.22980000  1.0 -0.2804831366
O  O79  1  0.42420000  0.60000000  0.72980000  1.0 -0.2804831366
O  O80  1  0.60000000  0.42420000  0.77020000  1.0 -0.2804831366
O  O81  1  0.44530000  0.33150000  0.31980000  1.0 -0.2991519382
O  O82  1  0.33150000  0.44530000  0.18020000  1.0 -0.2991519382
O  O83  1  0.55470000  0.66850000  0.68020000  1.0 -0.2991519382
O  O84  1  0.66850000  0.55470000  0.81980000  1.0 -0.2991519382
O  O85  1  0.29050000  0.10850000  0.92030000  1.0 -0.5316203842
O  O86  1  0.10850000  0.29050000  0.57970000  1.0 -0.5316203842
O  O87  1  0.70950000  0.89150000  0.07970000  1.0 -0.5316203842
O  O88  1  0.89150000  0.70950000  0.42030000  1.0 -0.5316203842
