# DDEC6 charges by PACMAN v1.1 (https://github.com/mtap-research/PACMAN-charge/)
data_YUDTUP_FSR_pacman
_symmetry_space_group_name_H-M   'P 1'
_cell_length_a   10.91500000
_cell_length_b   10.93020000
_cell_length_c   14.06010000
_cell_angle_alpha   91.88800000
_cell_angle_beta   89.71000000
_cell_angle_gamma   102.53700000
_symmetry_Int_Tables_number   1
_chemical_formula_structural   Zn2H29C34N7O8
_chemical_formula_sum   'Zn4 H58 C68 N14 O16'
_cell_volume   1636.52512925
_cell_formula_units_Z   2
loop_
 _symmetry_equiv_pos_site_id
 _symmetry_equiv_pos_as_xyz
  1  'x, y, z'
loop_
 _atom_site_type_symbol
 _atom_site_label
 _atom_site_symmetry_multiplicity
 _atom_site_fract_x
 _atom_site_fract_y
 _atom_site_fract_z
 _atom_site_occupancy
 _atom_site_charge
Zn  Zn1  1  0.76339000  0.34431000  0.30262000  1.0 0.7827972213
Zn  Zn2  1  0.76707000  0.33848000  0.09396000  1.0 0.848152552
Zn  Zn3  1  0.23661000  0.65569000  0.69738000  1.0 0.7827972213
Zn  Zn4  1  0.23293000  0.66152000  0.90604000  1.0 0.848152552
H  H1  1  0.91726000  0.27603000  0.45915000  1.0 0.1076273871
H  H2  1  0.91722000  0.26622000  0.62403000  1.0 0.119700696
H  H3  1  0.60340000  0.39718000  0.62902000  1.0 0.1009260854
H  H4  1  0.62337000  0.42415000  0.46820000  1.0 0.1076273871
H  H5  1  0.94797000  0.35731000  0.93423000  1.0 0.1076273871
H  H6  1  0.95162000  0.35343000  0.76869000  1.0 0.119700696
H  H7  1  0.57602000  0.30172000  0.77056000  1.0 0.119700696
H  H8  1  0.57936000  0.29638000  0.93347000  1.0 0.1076273871
H  H9  1  0.36394000  0.30998000  0.33866000  1.0 0.119700696
H  H10  1  0.16196000  0.37466000  0.05872000  1.0 0.119700696
H  H11  1  0.18786000  0.29408000  0.41792000  1.0 0.262355108
H  H12  1  0.06537000  0.30519000  0.37685000  1.0 0.2723732629
H  H13  1  0.62194000  0.61959000  0.35003000  1.0 0.1009260854
H  H14  1  0.61072000  0.73983000  0.39862000  1.0 0.0932853641
H  H15  1  0.84638000  0.96644000  0.07337000  1.0 0.0932853641
H  H16  1  0.85972000  0.75857000  0.07303000  1.0 0.0932853641
H  H17  1  0.92728000  0.46112000  0.46778000  1.0 0.0932853641
H  H18  1  0.93281000  0.45166000  0.63248000  1.0 0.1076273871
H  H19  1  0.59422000  0.21632000  0.61960000  1.0 0.1009260854
H  H20  1  0.60803000  0.22345000  0.45696000  1.0 0.119700696
H  H21  1  0.47945000  0.41664000  0.02733000  1.0 0.2723732629
H  H22  1  0.35833000  0.41335000  0.97790000  1.0 0.2723732629
H  H23  1  0.66946000  0.75610000  0.40909000  1.0 0.119700696
H  H24  1  0.72031000  0.64265000  0.38634000  1.0 0.119700696
H  H25  1  0.77433000  0.96081000  0.34840000  1.0 0.1009260854
H  H26  1  0.73964000  0.93403000  0.06796000  1.0 0.0932853641
H  H27  1  0.78304000  0.73674000  0.07010000  1.0 0.1009260854
H  H28  1  0.65892000  0.01730000  0.35711000  1.0 0.2115064302
H  H29  1  0.62755000  0.88943000  0.39650000  1.0 0.1076273871
H  H30  1  0.08274000  0.72397000  0.54085000  1.0 0.1076273871
H  H31  1  0.08278000  0.73378000  0.37597000  1.0 0.119700696
H  H32  1  0.39660000  0.60282000  0.37098000  1.0 0.1076273871
H  H33  1  0.37663000  0.57585000  0.53180000  1.0 0.1076273871
H  H34  1  0.05203000  0.64269000  0.06577000  1.0 0.1076273871
H  H35  1  0.04838000  0.64657000  0.23131000  1.0 0.119700696
H  H36  1  0.42398000  0.69828000  0.22944000  1.0 0.119700696
H  H37  1  0.42064000  0.70362000  0.06653000  1.0 0.1076273871
H  H38  1  0.63606000  0.69002000  0.66134000  1.0 0.119700696
H  H39  1  0.83804000  0.62534000  0.94128000  1.0 0.119700696
H  H40  1  0.81214000  0.70592000  0.58208000  1.0 0.262355108
H  H41  1  0.93463000  0.69481000  0.62315000  1.0 0.2723732629
H  H42  1  0.37806000  0.38041000  0.64997000  1.0 0.1009260854
H  H43  1  0.38928000  0.26017000  0.60138000  1.0 0.0932853641
H  H44  1  0.15362000  0.03356000  0.92663000  1.0 0.0932853641
H  H45  1  0.14028000  0.24143000  0.92697000  1.0 0.0932853641
H  H46  1  0.07272000  0.53888000  0.53222000  1.0 0.0932853641
H  H47  1  0.06719000  0.54834000  0.36752000  1.0 0.1076273871
H  H48  1  0.40578000  0.78368000  0.38040000  1.0 0.1009260854
H  H49  1  0.39197000  0.77655000  0.54304000  1.0 0.119700696
H  H50  1  0.52055000  0.58336000  0.97267000  1.0 0.2723732629
H  H51  1  0.64167000  0.58665000  0.02210000  1.0 0.2723732629
H  H52  1  0.33054000  0.24390000  0.59091000  1.0 0.119700696
H  H53  1  0.27969000  0.35735000  0.61366000  1.0 0.119700696
H  H54  1  0.22567000  0.03919000  0.65160000  1.0 0.1009260854
H  H55  1  0.26036000  0.06597000  0.93204000  1.0 0.0932853641
H  H56  1  0.21696000  0.26326000  0.92990000  1.0 0.1009260854
H  H57  1  0.34108000  0.98270000  0.64289000  1.0 0.2115064302
H  H58  1  0.37245000  0.11057000  0.60350000  1.0 0.1076273871
C  C1  1  0.76270000  0.33370000  0.64460000  1.0 0.0619154984
C  C2  1  0.85440000  0.30220000  0.49400000  1.0 -0.0126283642
C  C3  1  0.85500000  0.29590000  0.59340000  1.0 -0.0796258977
C  C4  1  0.67100000  0.37600000  0.59630000  1.0 -0.1011651231
C  C5  1  0.68000000  0.38600000  0.49900000  1.0 -0.0276994853
C  C6  1  0.87300000  0.34520000  0.90040000  1.0 0.0809269094
C  C7  1  0.87560000  0.34410000  0.80080000  1.0 -0.2190309761
C  C8  1  0.76340000  0.32890000  0.74960000  1.0 0.1009260854
C  C9  1  0.65250000  0.31200000  0.80210000  1.0 -0.2132340221
C  C10  1  0.65460000  0.31040000  0.90010000  1.0 0.0809269094
C  C11  1  0.52890000  0.33550000  0.19730000  1.0 0.5949448684
C  C12  1  0.39380000  0.34130000  0.19610000  1.0 -0.1011651231
C  C13  1  0.32410000  0.32300000  0.28280000  1.0 -0.3036494514
C  C14  1  0.19730000  0.32450000  0.28400000  1.0 0.262355108
C  C15  1  0.13810000  0.34790000  0.19770000  1.0 -0.1081740966
C  C16  1  0.20330000  0.36310000  0.11430000  1.0 -0.2132340221
C  C17  1  0.33390000  0.36160000  0.11050000  1.0 0.2405569443
C  C18  1  0.00170000  0.35190000  0.19690000  1.0 0.5838327447
C  C19  1  0.78670000  0.58230000  0.20250000  1.0 0.3925119529
C  C20  1  0.77310000  0.71690000  0.20430000  1.0 -0.0796258977
C  C21  1  0.72100000  0.77000000  0.28080000  1.0 0.0809269094
C  C22  1  0.70300000  0.89320000  0.27460000  1.0 0.0510363096
C  C23  1  0.75080000  0.96750000  0.20300000  1.0 -0.0796258977
C  C24  1  0.81300000  0.91610000  0.12340000  1.0 -0.0686289741
C  C25  1  0.82200000  0.79300000  0.12380000  1.0 -0.0631136063
C  C26  1  0.74280000  0.10270000  0.20160000  1.0 0.5344699958
C  C27  1  0.86000000  0.41090000  0.49890000  1.0 -0.0193195788
C  C28  1  0.86400000  0.40700000  0.59830000  1.0 -0.0928620117
C  C29  1  0.66400000  0.26600000  0.59090000  1.0 -0.0928620117
C  C30  1  0.67200000  0.27300000  0.49310000  1.0 -0.0126283642
C  C31  1  0.80000000  0.79100000  0.29280000  1.0 0.001230403
C  C32  1  0.77500000  0.91500000  0.29200000  1.0 0.0351525435
C  C33  1  0.75200000  0.90000000  0.12600000  1.0 -0.05371855
C  C34  1  0.77100000  0.77700000  0.12800000  1.0 -0.0631136063
C  C35  1  0.23730000  0.66630000  0.35540000  1.0 0.0619154984
C  C36  1  0.14560000  0.69780000  0.50600000  1.0 -0.0126283642
C  C37  1  0.14500000  0.70410000  0.40660000  1.0 -0.0796258977
C  C38  1  0.32900000  0.62400000  0.40370000  1.0 -0.1011651231
C  C39  1  0.32000000  0.61400000  0.50100000  1.0 -0.0276994853
C  C40  1  0.12700000  0.65480000  0.09960000  1.0 0.0745340103
C  C41  1  0.12440000  0.65590000  0.19920000  1.0 -0.2190309761
C  C42  1  0.23660000  0.67110000  0.25040000  1.0 0.1009260854
C  C43  1  0.34750000  0.68800000  0.19790000  1.0 -0.2132340221
C  C44  1  0.34540000  0.68960000  0.09990000  1.0 0.0809269094
C  C45  1  0.47110000  0.66450000  0.80270000  1.0 0.5949448684
C  C46  1  0.60620000  0.65870000  0.80390000  1.0 -0.1011651231
C  C47  1  0.67590000  0.67700000  0.71720000  1.0 -0.3036494514
C  C48  1  0.80270000  0.67550000  0.71600000  1.0 0.262355108
C  C49  1  0.86190000  0.65210000  0.80230000  1.0 -0.1081740966
C  C50  1  0.79670000  0.63690000  0.88570000  1.0 -0.2132340221
C  C51  1  0.66610000  0.63840000  0.88950000  1.0 0.2405569443
C  C52  1  0.99830000  0.64810000  0.80310000  1.0 0.5838327447
C  C53  1  0.21330000  0.41770000  0.79750000  1.0 0.3925119529
C  C54  1  0.22690000  0.28310000  0.79570000  1.0 -0.0796258977
C  C55  1  0.27900000  0.23000000  0.71920000  1.0 0.0809269094
C  C56  1  0.29700000  0.10680000  0.72540000  1.0 0.0510363096
C  C57  1  0.24920000  0.03250000  0.79700000  1.0 -0.0686289741
C  C58  1  0.18700000  0.08390000  0.87660000  1.0 -0.0686289741
C  C59  1  0.17800000  0.20700000  0.87620000  1.0 -0.0631136063
C  C60  1  0.25720000  0.89730000  0.79840000  1.0 0.5344699958
C  C61  1  0.14000000  0.58910000  0.50110000  1.0 -0.0193195788
C  C62  1  0.13600000  0.59300000  0.40170000  1.0 -0.0928620117
C  C63  1  0.33600000  0.73400000  0.40910000  1.0 -0.0928620117
C  C64  1  0.32800000  0.72700000  0.50690000  1.0 -0.0126283642
C  C65  1  0.20000000  0.20900000  0.70720000  1.0 0.001230403
C  C66  1  0.22500000  0.08500000  0.70800000  1.0 0.0351525435
C  C67  1  0.24800000  0.10000000  0.87400000  1.0 -0.05371855
C  C68  1  0.22900000  0.22300000  0.87200000  1.0 -0.0631136063
N  N1  1  0.76300000  0.32870000  0.94820000  1.0 -0.2190309761
N  N2  1  0.76460000  0.34560000  0.44740000  1.0 -0.0193195788
N  N3  1  0.14380000  0.30600000  0.36990000  1.0 -0.5637117287
N  N4  1  0.64000000  0.70000000  0.35300000  1.0 -0.3216938486
N  N5  1  0.39900000  0.40200000  0.02800000  1.0 -0.597460117
N  N6  1  0.71700000  0.71900000  0.37530000  1.0 -0.2625736108
N  N7  1  0.65800000  0.93800000  0.35200000  1.0 -0.3756321928
N  N8  1  0.23700000  0.67130000  0.05180000  1.0 -0.2190309761
N  N9  1  0.23540000  0.65440000  0.55260000  1.0 -0.0193195788
N  N10  1  0.85620000  0.69400000  0.63010000  1.0 -0.5637117287
N  N11  1  0.36000000  0.30000000  0.64700000  1.0 -0.3216938486
N  N12  1  0.60100000  0.59800000  0.97200000  1.0 -0.597460117
N  N13  1  0.28300000  0.28100000  0.62470000  1.0 -0.2625736108
N  N14  1  0.34200000  0.06200000  0.64800000  1.0 -0.3756321928
O  O1  1  0.58360000  0.33190000  0.11600000  1.0 -0.5505694857
O  O2  1  0.58110000  0.33580000  0.27780000  1.0 -0.5653731784
O  O3  1  0.78980000  0.52760000  0.12120000  1.0 -0.5199617406
O  O4  1  0.79080000  0.53100000  0.28140000  1.0 -0.5037997277
O  O5  1  0.74470000  0.15230000  0.12120000  1.0 -0.5037997277
O  O6  1  0.73390000  0.15750000  0.28020000  1.0 -0.5037997277
O  O7  1  0.95210000  0.35740000  0.11680000  1.0 -0.5413238963
O  O8  1  0.94610000  0.35160000  0.27450000  1.0 -0.5505694857
O  O9  1  0.41640000  0.66810000  0.88400000  1.0 -0.5505694857
O  O10  1  0.41890000  0.66420000  0.72220000  1.0 -0.5653731784
O  O11  1  0.21020000  0.47240000  0.87880000  1.0 -0.5199617406
O  O12  1  0.20920000  0.46900000  0.71860000  1.0 -0.5037997277
O  O13  1  0.25530000  0.84770000  0.87880000  1.0 -0.5037997277
O  O14  1  0.26610000  0.84250000  0.71980000  1.0 -0.5037997277
O  O15  1  0.04790000  0.64260000  0.88320000  1.0 -0.5413238963
O  O16  1  0.05390000  0.64840000  0.72550000  1.0 -0.5505694857
