# DDEC6 charges by PACMAN v1.1 (https://github.com/mtap-research/PACMAN-charge/)
data_YUJGES_ASR_pacman
_symmetry_space_group_name_H-M   'P 1'
_cell_length_a   23.69380000
_cell_length_b   23.69380000
_cell_length_c   23.69380000
_cell_angle_alpha   90.00000000
_cell_angle_beta   90.00000000
_cell_angle_gamma   90.00000000
_symmetry_Int_Tables_number   1
_chemical_formula_structural   Zr3H10C24(SO11)2
_chemical_formula_sum   'Zr18 H60 C144 S12 O132'
_cell_volume   13301.60829885
_cell_formula_units_Z   6
loop_
 _symmetry_equiv_pos_site_id
 _symmetry_equiv_pos_as_xyz
  1  'x, y, z'
loop_
 _atom_site_type_symbol
 _atom_site_label
 _atom_site_symmetry_multiplicity
 _atom_site_fract_x
 _atom_site_fract_y
 _atom_site_fract_z
 _atom_site_occupancy
 _atom_site_charge
Zr  Zr1  1  0.10390000  0.50000000  0.00000000  1.0 2.4264855474
Zr  Zr2  1  0.89610000  0.50000000  0.00000000  1.0 2.4264855474
Zr  Zr3  1  0.00000000  0.10390000  0.50000000  1.0 2.4264855474
Zr  Zr4  1  0.00000000  0.89610000  0.50000000  1.0 2.4264855474
Zr  Zr5  1  0.50000000  0.00000000  0.10390000  1.0 2.4264855474
Zr  Zr6  1  0.50000000  0.00000000  0.89610000  1.0 2.4264855474
Zr  Zr7  1  0.50000000  0.10390000  0.00000000  1.0 2.4050086428
Zr  Zr8  1  0.50000000  0.89610000  0.00000000  1.0 2.4050086428
Zr  Zr9  1  0.00000000  0.50000000  0.10390000  1.0 2.4050086428
Zr  Zr10  1  0.00000000  0.50000000  0.89610000  1.0 2.4042371203
Zr  Zr11  1  0.10390000  0.00000000  0.50000000  1.0 2.4042371203
Zr  Zr12  1  0.89610000  0.00000000  0.50000000  1.0 2.4050086428
Zr  Zr13  1  0.39610000  0.00000000  0.00000000  1.0 2.3506908506
Zr  Zr14  1  0.60390000  0.00000000  0.00000000  1.0 2.3506908506
Zr  Zr15  1  0.00000000  0.39610000  0.00000000  1.0 2.3506908506
Zr  Zr16  1  0.00000000  0.60390000  0.00000000  1.0 2.3506908506
Zr  Zr17  1  0.00000000  0.00000000  0.39610000  1.0 2.3506908506
Zr  Zr18  1  0.00000000  0.00000000  0.60390000  1.0 2.3506908506
H  H1  1  0.24195000  0.36972000  0.00000000  1.0 0.1320346137
H  H2  1  0.15778000  0.17217000  0.00000000  1.0 0.0786730581
H  H3  1  0.09681000  0.25969000  0.00000000  1.0 0.1103882307
H  H4  1  0.24838000  0.13041000  0.00000000  1.0 0.0883974386
H  H5  1  0.40354000  0.23235000  0.00000000  1.0 0.1103882307
H  H6  1  0.75805000  0.63028000  0.00000000  1.0 0.1320346137
H  H7  1  0.84222000  0.82783000  0.00000000  1.0 0.0786730581
H  H8  1  0.90319000  0.74031000  0.00000000  1.0 0.1103882307
H  H9  1  0.75162000  0.86959000  0.00000000  1.0 0.0883974386
H  H10  1  0.59646000  0.76765000  0.00000000  1.0 0.1103882307
H  H11  1  0.75805000  0.36972000  0.00000000  1.0 0.1320346137
H  H12  1  0.84222000  0.17217000  0.00000000  1.0 0.0786730581
H  H13  1  0.90319000  0.25969000  0.00000000  1.0 0.1103882307
H  H14  1  0.75162000  0.13041000  0.00000000  1.0 0.0883974386
H  H15  1  0.59646000  0.23235000  0.00000000  1.0 0.1103882307
H  H16  1  0.24195000  0.63028000  0.00000000  1.0 0.1320346137
H  H17  1  0.15778000  0.82783000  0.00000000  1.0 0.0786730581
H  H18  1  0.09681000  0.74031000  0.00000000  1.0 0.1103882307
H  H19  1  0.24838000  0.86959000  0.00000000  1.0 0.0883974386
H  H20  1  0.40354000  0.76765000  0.00000000  1.0 0.1103882307
H  H21  1  0.00000000  0.24195000  0.36972000  1.0 0.1320346137
H  H22  1  0.00000000  0.15778000  0.17217000  1.0 0.0786730581
H  H23  1  0.00000000  0.09681000  0.25969000  1.0 0.1103882307
H  H24  1  0.00000000  0.24838000  0.13041000  1.0 0.0883974386
H  H25  1  0.00000000  0.40354000  0.23235000  1.0 0.1103882307
H  H26  1  0.00000000  0.75805000  0.63028000  1.0 0.1320346137
H  H27  1  0.00000000  0.84222000  0.82783000  1.0 0.0786730581
H  H28  1  0.00000000  0.90319000  0.74031000  1.0 0.1103882307
H  H29  1  0.00000000  0.75162000  0.86959000  1.0 0.0883974386
H  H30  1  0.00000000  0.59646000  0.76765000  1.0 0.1103882307
H  H31  1  0.00000000  0.75805000  0.36972000  1.0 0.1320346137
H  H32  1  0.00000000  0.84222000  0.17217000  1.0 0.0786730581
H  H33  1  0.00000000  0.90319000  0.25969000  1.0 0.1103882307
H  H34  1  0.00000000  0.75162000  0.13041000  1.0 0.0883974386
H  H35  1  0.00000000  0.59646000  0.23235000  1.0 0.1103882307
H  H36  1  0.00000000  0.24195000  0.63028000  1.0 0.1320346137
H  H37  1  0.00000000  0.15778000  0.82783000  1.0 0.0786730581
H  H38  1  0.00000000  0.09681000  0.74031000  1.0 0.1103882307
H  H39  1  0.00000000  0.24838000  0.86959000  1.0 0.0883974386
H  H40  1  0.00000000  0.40354000  0.76765000  1.0 0.1103882307
H  H41  1  0.36972000  0.00000000  0.24195000  1.0 0.1320346137
H  H42  1  0.17217000  0.00000000  0.15778000  1.0 0.0786730581
H  H43  1  0.25969000  0.00000000  0.09681000  1.0 0.1103882307
H  H44  1  0.13041000  0.00000000  0.24838000  1.0 0.0883974386
H  H45  1  0.23235000  0.00000000  0.40354000  1.0 0.1103882307
H  H46  1  0.63028000  0.00000000  0.75805000  1.0 0.1320346137
H  H47  1  0.82783000  0.00000000  0.84222000  1.0 0.0786730581
H  H48  1  0.74031000  0.00000000  0.90319000  1.0 0.1103882307
H  H49  1  0.86959000  0.00000000  0.75162000  1.0 0.0883974386
H  H50  1  0.76765000  0.00000000  0.59646000  1.0 0.1103882307
H  H51  1  0.36972000  0.00000000  0.75805000  1.0 0.1320346137
H  H52  1  0.17217000  0.00000000  0.84222000  1.0 0.0786730581
H  H53  1  0.25969000  0.00000000  0.90319000  1.0 0.1103882307
H  H54  1  0.13041000  0.00000000  0.75162000  1.0 0.0883974386
H  H55  1  0.23235000  0.00000000  0.59646000  1.0 0.1103882307
H  H56  1  0.63028000  0.00000000  0.24195000  1.0 0.1320346137
H  H57  1  0.82783000  0.00000000  0.15778000  1.0 0.0786730581
H  H58  1  0.74031000  0.00000000  0.09681000  1.0 0.1103882307
H  H59  1  0.86959000  0.00000000  0.24838000  1.0 0.0883974386
H  H60  1  0.76765000  0.00000000  0.40354000  1.0 0.1103882307
C  C1  1  0.16932000  0.31795000  0.00000000  1.0 -0.0639640721
C  C2  1  0.22625000  0.32432000  0.00000000  1.0 -0.1092276022
C  C3  1  0.26529000  0.27890000  0.00000000  1.0 0.0630196844
C  C4  1  0.23735000  0.22032000  0.00000000  1.0 0.0727244531
C  C5  1  0.17826000  0.21556000  0.00000000  1.0 -0.1472110759
C  C6  1  0.14463000  0.26382000  0.00000000  1.0 -0.0882970142
C  C7  1  0.26965000  0.17348000  0.00000000  1.0 -0.1157641468
C  C8  1  0.32845000  0.17757000  0.00000000  1.0 -0.0747277244
C  C9  1  0.35559000  0.23012000  0.00000000  1.0 -0.1092276022
C  C10  1  0.32303000  0.28165000  0.00000000  1.0 -0.1092276022
C  C11  1  0.36840000  0.13240000  0.00000000  1.0 0.6016392996
C  C12  1  0.13160000  0.36750000  0.00000000  1.0 0.6302063802
C  C13  1  0.83068000  0.68205000  0.00000000  1.0 -0.0639640721
C  C14  1  0.77375000  0.67568000  0.00000000  1.0 -0.1092276022
C  C15  1  0.73471000  0.72110000  0.00000000  1.0 0.0630196844
C  C16  1  0.76265000  0.77968000  0.00000000  1.0 0.0727244531
C  C17  1  0.82174000  0.78444000  0.00000000  1.0 -0.1472110759
C  C18  1  0.85537000  0.73618000  0.00000000  1.0 -0.0882970142
C  C19  1  0.73035000  0.82652000  0.00000000  1.0 -0.1157641468
C  C20  1  0.67155000  0.82243000  0.00000000  1.0 -0.0747277244
C  C21  1  0.64441000  0.76988000  0.00000000  1.0 -0.1092276022
C  C22  1  0.67697000  0.71835000  0.00000000  1.0 -0.1092276022
C  C23  1  0.63160000  0.86760000  0.00000000  1.0 0.6016392996
C  C24  1  0.86840000  0.63250000  0.00000000  1.0 0.6302063802
C  C25  1  0.83068000  0.31795000  0.00000000  1.0 -0.0639640721
C  C26  1  0.77375000  0.32432000  0.00000000  1.0 -0.1092276022
C  C27  1  0.73471000  0.27890000  0.00000000  1.0 0.0630196844
C  C28  1  0.76265000  0.22032000  0.00000000  1.0 0.0727244531
C  C29  1  0.82174000  0.21556000  0.00000000  1.0 -0.1472110759
C  C30  1  0.85537000  0.26382000  0.00000000  1.0 -0.0882970142
C  C31  1  0.73035000  0.17348000  0.00000000  1.0 -0.1157641468
C  C32  1  0.67155000  0.17757000  0.00000000  1.0 -0.0747277244
C  C33  1  0.64441000  0.23012000  0.00000000  1.0 -0.1092276022
C  C34  1  0.67697000  0.28165000  0.00000000  1.0 -0.1092276022
C  C35  1  0.63160000  0.13240000  0.00000000  1.0 0.6016392996
C  C36  1  0.86840000  0.36750000  0.00000000  1.0 0.6302063802
C  C37  1  0.16932000  0.68205000  0.00000000  1.0 -0.0639640721
C  C38  1  0.22625000  0.67568000  0.00000000  1.0 -0.1092276022
C  C39  1  0.26529000  0.72110000  0.00000000  1.0 0.0630196844
C  C40  1  0.23735000  0.77968000  0.00000000  1.0 0.0727244531
C  C41  1  0.17826000  0.78444000  0.00000000  1.0 -0.1472110759
C  C42  1  0.14463000  0.73618000  0.00000000  1.0 -0.0882970142
C  C43  1  0.26965000  0.82652000  0.00000000  1.0 -0.1157641468
C  C44  1  0.32845000  0.82243000  0.00000000  1.0 -0.0747277244
C  C45  1  0.35559000  0.76988000  0.00000000  1.0 -0.1092276022
C  C46  1  0.32303000  0.71835000  0.00000000  1.0 -0.1092276022
C  C47  1  0.36840000  0.86760000  0.00000000  1.0 0.6016392996
C  C48  1  0.13160000  0.63250000  0.00000000  1.0 0.6302063802
C  C49  1  0.00000000  0.16932000  0.31795000  1.0 -0.0639640721
C  C50  1  0.00000000  0.22625000  0.32432000  1.0 -0.1092276022
C  C51  1  0.00000000  0.26529000  0.27890000  1.0 0.0630196844
C  C52  1  0.00000000  0.23735000  0.22032000  1.0 0.0727244531
C  C53  1  0.00000000  0.17826000  0.21556000  1.0 -0.1472110759
C  C54  1  0.00000000  0.14463000  0.26382000  1.0 -0.0882970142
C  C55  1  0.00000000  0.26965000  0.17348000  1.0 -0.1157641468
C  C56  1  0.00000000  0.32845000  0.17757000  1.0 -0.0747277244
C  C57  1  0.00000000  0.35559000  0.23012000  1.0 -0.1092276022
C  C58  1  0.00000000  0.32303000  0.28165000  1.0 -0.1092276022
C  C59  1  0.00000000  0.36840000  0.13240000  1.0 0.6016392996
C  C60  1  0.00000000  0.13160000  0.36750000  1.0 0.6302063802
C  C61  1  0.00000000  0.83068000  0.68205000  1.0 -0.0639640721
C  C62  1  0.00000000  0.77375000  0.67568000  1.0 -0.1092276022
C  C63  1  0.00000000  0.73471000  0.72110000  1.0 0.0630196844
C  C64  1  0.00000000  0.76265000  0.77968000  1.0 0.0727244531
C  C65  1  0.00000000  0.82174000  0.78444000  1.0 -0.1472110759
C  C66  1  0.00000000  0.85537000  0.73618000  1.0 -0.0882970142
C  C67  1  0.00000000  0.73035000  0.82652000  1.0 -0.1157641468
C  C68  1  0.00000000  0.67155000  0.82243000  1.0 -0.0747277244
C  C69  1  0.00000000  0.64441000  0.76988000  1.0 -0.1092276022
C  C70  1  0.00000000  0.67697000  0.71835000  1.0 -0.1092276022
C  C71  1  0.00000000  0.63160000  0.86760000  1.0 0.6016392996
C  C72  1  0.00000000  0.86840000  0.63250000  1.0 0.6302063802
C  C73  1  0.00000000  0.83068000  0.31795000  1.0 -0.0639640721
C  C74  1  0.00000000  0.77375000  0.32432000  1.0 -0.1092276022
C  C75  1  0.00000000  0.73471000  0.27890000  1.0 0.0630196844
C  C76  1  0.00000000  0.76265000  0.22032000  1.0 0.0727244531
C  C77  1  0.00000000  0.82174000  0.21556000  1.0 -0.1472110759
C  C78  1  0.00000000  0.85537000  0.26382000  1.0 -0.0882970142
C  C79  1  0.00000000  0.73035000  0.17348000  1.0 -0.1157641468
C  C80  1  0.00000000  0.67155000  0.17757000  1.0 -0.0747277244
C  C81  1  0.00000000  0.64441000  0.23012000  1.0 -0.1092276022
C  C82  1  0.00000000  0.67697000  0.28165000  1.0 -0.1092276022
C  C83  1  0.00000000  0.63160000  0.13240000  1.0 0.6016392996
C  C84  1  0.00000000  0.86840000  0.36750000  1.0 0.6302063802
C  C85  1  0.00000000  0.16932000  0.68205000  1.0 -0.0639640721
C  C86  1  0.00000000  0.22625000  0.67568000  1.0 -0.1092276022
C  C87  1  0.00000000  0.26529000  0.72110000  1.0 0.0630196844
C  C88  1  0.00000000  0.23735000  0.77968000  1.0 0.0727244531
C  C89  1  0.00000000  0.17826000  0.78444000  1.0 -0.1472110759
C  C90  1  0.00000000  0.14463000  0.73618000  1.0 -0.0882970142
C  C91  1  0.00000000  0.26965000  0.82652000  1.0 -0.1157641468
C  C92  1  0.00000000  0.32845000  0.82243000  1.0 -0.0747277244
C  C93  1  0.00000000  0.35559000  0.76988000  1.0 -0.1092276022
C  C94  1  0.00000000  0.32303000  0.71835000  1.0 -0.1092276022
C  C95  1  0.00000000  0.36840000  0.86760000  1.0 0.6016392996
C  C96  1  0.00000000  0.13160000  0.63250000  1.0 0.6302063802
C  C97  1  0.31795000  0.00000000  0.16932000  1.0 -0.0639640721
C  C98  1  0.32432000  0.00000000  0.22625000  1.0 -0.1092276022
C  C99  1  0.27890000  0.00000000  0.26529000  1.0 0.0630196844
C  C100  1  0.22032000  0.00000000  0.23735000  1.0 0.0727244531
C  C101  1  0.21556000  0.00000000  0.17826000  1.0 -0.1472110759
C  C102  1  0.26382000  0.00000000  0.14463000  1.0 -0.0882970142
C  C103  1  0.17348000  0.00000000  0.26965000  1.0 -0.1157641468
C  C104  1  0.17757000  0.00000000  0.32845000  1.0 -0.0747277244
C  C105  1  0.23012000  0.00000000  0.35559000  1.0 -0.1092276022
C  C106  1  0.28165000  0.00000000  0.32303000  1.0 -0.1092276022
C  C107  1  0.13240000  0.00000000  0.36840000  1.0 0.6016392996
C  C108  1  0.36750000  0.00000000  0.13160000  1.0 0.6302063802
C  C109  1  0.68205000  0.00000000  0.83068000  1.0 -0.0639640721
C  C110  1  0.67568000  0.00000000  0.77375000  1.0 -0.1092276022
C  C111  1  0.72110000  0.00000000  0.73471000  1.0 0.0630196844
C  C112  1  0.77968000  0.00000000  0.76265000  1.0 0.0727244531
C  C113  1  0.78444000  0.00000000  0.82174000  1.0 -0.1472110759
C  C114  1  0.73618000  0.00000000  0.85537000  1.0 -0.0882970142
C  C115  1  0.82652000  0.00000000  0.73035000  1.0 -0.1092276022
C  C116  1  0.82243000  0.00000000  0.67155000  1.0 -0.0747277244
C  C117  1  0.76988000  0.00000000  0.64441000  1.0 -0.1092276022
C  C118  1  0.71835000  0.00000000  0.67697000  1.0 -0.1092276022
C  C119  1  0.86760000  0.00000000  0.63160000  1.0 0.6016392996
C  C120  1  0.63250000  0.00000000  0.86840000  1.0 0.6302063802
C  C121  1  0.31795000  0.00000000  0.83068000  1.0 -0.0639640721
C  C122  1  0.32432000  0.00000000  0.77375000  1.0 -0.1092276022
C  C123  1  0.27890000  0.00000000  0.73471000  1.0 0.0630196844
C  C124  1  0.22032000  0.00000000  0.76265000  1.0 0.0727244531
C  C125  1  0.21556000  0.00000000  0.82174000  1.0 -0.1472110759
C  C126  1  0.26382000  0.00000000  0.85537000  1.0 -0.0882970142
C  C127  1  0.17348000  0.00000000  0.73035000  1.0 -0.1157641468
C  C128  1  0.17757000  0.00000000  0.67155000  1.0 -0.0747277244
C  C129  1  0.23012000  0.00000000  0.64441000  1.0 -0.1092276022
C  C130  1  0.28165000  0.00000000  0.67697000  1.0 -0.1092276022
C  C131  1  0.13240000  0.00000000  0.63160000  1.0 0.6016392996
C  C132  1  0.36750000  0.00000000  0.86840000  1.0 0.6302063802
C  C133  1  0.68205000  0.00000000  0.16932000  1.0 -0.0639640721
C  C134  1  0.67568000  0.00000000  0.22625000  1.0 -0.1092276022
C  C135  1  0.72110000  0.00000000  0.26529000  1.0 0.0630196844
C  C136  1  0.77968000  0.00000000  0.23735000  1.0 0.0727244531
C  C137  1  0.78444000  0.00000000  0.17826000  1.0 -0.1472110759
C  C138  1  0.73618000  0.00000000  0.14463000  1.0 -0.0882970142
C  C139  1  0.82652000  0.00000000  0.26965000  1.0 -0.1157641468
C  C140  1  0.82243000  0.00000000  0.32845000  1.0 -0.0747277244
C  C141  1  0.76988000  0.00000000  0.35559000  1.0 -0.1092276022
C  C142  1  0.71835000  0.00000000  0.32303000  1.0 -0.1092276022
C  C143  1  0.86760000  0.00000000  0.36840000  1.0 0.6016392996
C  C144  1  0.63250000  0.00000000  0.13160000  1.0 0.6302063802
S  S1  1  0.35838000  0.34753000  0.00000000  1.0 0.7900379191
S  S2  1  0.64162000  0.65247000  0.00000000  1.0 0.7900379191
S  S3  1  0.64162000  0.34753000  0.00000000  1.0 0.7900379191
S  S4  1  0.35838000  0.65247000  0.00000000  1.0 0.7900379191
S  S5  1  0.00000000  0.35838000  0.34753000  1.0 0.7900379191
S  S6  1  0.00000000  0.64162000  0.65247000  1.0 0.7900379191
S  S7  1  0.00000000  0.64162000  0.34753000  1.0 0.7900379191
S  S8  1  0.00000000  0.35838000  0.65247000  1.0 0.7900379191
S  S9  1  0.34753000  0.00000000  0.35838000  1.0 0.7900379191
S  S10  1  0.65247000  0.00000000  0.64162000  1.0 0.7900379191
S  S11  1  0.34753000  0.00000000  0.64162000  1.0 0.7900379191
S  S12  1  0.65247000  0.00000000  0.35838000  1.0 0.7900379191
O  O1  1  0.39257000  0.34881000  0.04933000  1.0 -0.2817466518
O  O2  1  0.05000000  0.45000000  0.05000000  1.0 -1.12099892
O  O3  1  0.45735000  0.33422000  0.04266000  1.0 0.2248490811
O  O4  1  0.60743000  0.65119000  0.04933000  1.0 -0.2817466518
O  O5  1  0.95000000  0.55000000  0.05000000  1.0 -1.12099892
O  O6  1  0.54265000  0.66578000  0.04266000  1.0 0.2261133333
O  O7  1  0.60743000  0.34881000  0.95067000  1.0 -0.2817466518
O  O8  1  0.95000000  0.45000000  0.95000000  1.0 -1.12099892
O  O9  1  0.54265000  0.33422000  0.95734000  1.0 0.2261133333
O  O10  1  0.39257000  0.65119000  0.95067000  1.0 -0.2817466518
O  O11  1  0.05000000  0.55000000  0.95000000  1.0 -1.12099892
O  O12  1  0.45735000  0.66578000  0.95734000  1.0 0.2261133333
O  O13  1  0.04933000  0.39257000  0.34881000  1.0 -0.2817466518
O  O14  1  0.05000000  0.05000000  0.45000000  1.0 -1.12099892
O  O15  1  0.04266000  0.45735000  0.33422000  1.0 0.2248490811
O  O16  1  0.04933000  0.60743000  0.65119000  1.0 -0.2817466518
O  O17  1  0.05000000  0.95000000  0.55000000  1.0 -1.12099892
O  O18  1  0.04266000  0.54265000  0.66578000  1.0 0.2248490811
O  O19  1  0.95067000  0.60743000  0.34881000  1.0 -0.2817466518
O  O20  1  0.95000000  0.95000000  0.45000000  1.0 -1.12099892
O  O21  1  0.95734000  0.54265000  0.33422000  1.0 0.2248490811
O  O22  1  0.95067000  0.39257000  0.65119000  1.0 -0.2817466518
O  O23  1  0.95000000  0.05000000  0.55000000  1.0 -1.12099892
O  O24  1  0.95734000  0.45735000  0.66578000  1.0 0.2248490811
O  O25  1  0.34881000  0.04933000  0.39257000  1.0 -0.2817466518
O  O26  1  0.45000000  0.05000000  0.05000000  1.0 -1.12099892
O  O27  1  0.33422000  0.04266000  0.45735000  1.0 0.2248490811
O  O28  1  0.65119000  0.04933000  0.60743000  1.0 -0.2817466518
O  O29  1  0.55000000  0.05000000  0.95000000  1.0 -1.12099892
O  O30  1  0.66578000  0.04266000  0.54265000  1.0 0.2261133333
O  O31  1  0.34881000  0.95067000  0.60743000  1.0 -0.2817466518
O  O32  1  0.45000000  0.95000000  0.95000000  1.0 -1.12099892
O  O33  1  0.33422000  0.95734000  0.54265000  1.0 0.2248490811
O  O34  1  0.65119000  0.95067000  0.39257000  1.0 -0.2817466518
O  O35  1  0.55000000  0.95000000  0.05000000  1.0 -1.12099892
O  O36  1  0.66578000  0.95734000  0.45735000  1.0 0.2248490811
O  O37  1  0.60743000  0.65119000  0.95067000  1.0 -0.2817466518
O  O38  1  0.95000000  0.55000000  0.95000000  1.0 -1.12099892
O  O39  1  0.54265000  0.66578000  0.95734000  1.0 0.2261133333
O  O40  1  0.39257000  0.34881000  0.95067000  1.0 -0.2817466518
O  O41  1  0.05000000  0.45000000  0.95000000  1.0 -1.12099892
O  O42  1  0.45735000  0.33422000  0.95734000  1.0 0.2248490811
O  O43  1  0.39257000  0.65119000  0.04933000  1.0 -0.2817466518
O  O44  1  0.05000000  0.55000000  0.05000000  1.0 -1.12099892
O  O45  1  0.45735000  0.66578000  0.04266000  1.0 0.2261133333
O  O46  1  0.60743000  0.34881000  0.04933000  1.0 -0.2817466518
O  O47  1  0.95000000  0.45000000  0.05000000  1.0 -1.12099892
O  O48  1  0.54265000  0.33422000  0.04266000  1.0 0.2248490811
O  O49  1  0.95067000  0.60743000  0.65119000  1.0 -0.2817466518
O  O50  1  0.95000000  0.95000000  0.55000000  1.0 -1.12099892
O  O51  1  0.95734000  0.54265000  0.66578000  1.0 0.2248490811
O  O52  1  0.95067000  0.39257000  0.34881000  1.0 -0.2817466518
O  O53  1  0.95000000  0.05000000  0.45000000  1.0 -1.12099892
O  O54  1  0.95734000  0.45735000  0.33422000  1.0 0.2248490811
O  O55  1  0.04933000  0.39257000  0.65119000  1.0 -0.2817466518
O  O56  1  0.05000000  0.05000000  0.55000000  1.0 -1.12099892
O  O57  1  0.04266000  0.45735000  0.66578000  1.0 0.2248490811
O  O58  1  0.04933000  0.60743000  0.34881000  1.0 -0.2817466518
O  O59  1  0.05000000  0.95000000  0.45000000  1.0 -1.12099892
O  O60  1  0.04266000  0.54265000  0.33422000  1.0 0.2248490811
O  O61  1  0.65119000  0.95067000  0.60743000  1.0 -0.2817466518
O  O62  1  0.55000000  0.95000000  0.95000000  1.0 -1.12099892
O  O63  1  0.66578000  0.95734000  0.54265000  1.0 0.2248490811
O  O64  1  0.34881000  0.95067000  0.39257000  1.0 -0.2817466518
O  O65  1  0.45000000  0.95000000  0.05000000  1.0 -1.12099892
O  O66  1  0.33422000  0.95734000  0.45735000  1.0 0.2248490811
O  O67  1  0.65119000  0.04933000  0.39257000  1.0 -0.2817466518
O  O68  1  0.55000000  0.05000000  0.05000000  1.0 -1.12099892
O  O69  1  0.66578000  0.04266000  0.45735000  1.0 0.2261133333
O  O70  1  0.34881000  0.04933000  0.60743000  1.0 -0.2817466518
O  O71  1  0.45000000  0.05000000  0.95000000  1.0 -1.12099892
O  O72  1  0.33422000  0.04266000  0.54265000  1.0 0.2248490811
O  O73  1  0.31096000  0.39319000  0.00000000  1.0 -0.5321921766
O  O74  1  0.42150000  0.15150000  0.00000000  1.0 -0.6463723293
O  O75  1  0.34830000  0.07850000  0.00000000  1.0 -0.6116900504
O  O76  1  0.07850000  0.34850000  0.00000000  1.0 -0.6167702934
O  O77  1  0.15170000  0.42150000  0.00000000  1.0 -0.689290763
O  O78  1  0.68904000  0.60681000  0.00000000  1.0 -0.5321921766
O  O79  1  0.57850000  0.84850000  0.00000000  1.0 -0.6463723293
O  O80  1  0.65170000  0.92150000  0.00000000  1.0 -0.6116900504
O  O81  1  0.92150000  0.65150000  0.00000000  1.0 -0.6167702934
O  O82  1  0.84830000  0.57850000  0.00000000  1.0 -0.689290763
O  O83  1  0.68904000  0.39319000  0.00000000  1.0 -0.5321921766
O  O84  1  0.57850000  0.15150000  0.00000000  1.0 -0.6463723293
O  O85  1  0.65170000  0.07850000  0.00000000  1.0 -0.6116900504
O  O86  1  0.92150000  0.34850000  0.00000000  1.0 -0.6167702934
O  O87  1  0.84830000  0.42150000  0.00000000  1.0 -0.689290763
O  O88  1  0.31096000  0.60681000  0.00000000  1.0 -0.5321921766
O  O89  1  0.42150000  0.84850000  0.00000000  1.0 -0.6463723293
O  O90  1  0.34830000  0.92150000  0.00000000  1.0 -0.6116900504
O  O91  1  0.07850000  0.65150000  0.00000000  1.0 -0.6167702934
O  O92  1  0.15170000  0.57850000  0.00000000  1.0 -0.689290763
O  O93  1  0.00000000  0.31096000  0.39319000  1.0 -0.5321921766
O  O94  1  0.00000000  0.42150000  0.15150000  1.0 -0.6463723293
O  O95  1  0.00000000  0.34830000  0.07850000  1.0 -0.6116900504
O  O96  1  0.00000000  0.07850000  0.34850000  1.0 -0.6167702934
O  O97  1  0.00000000  0.15170000  0.42150000  1.0 -0.689290763
O  O98  1  0.00000000  0.68904000  0.60681000  1.0 -0.5321921766
O  O99  1  0.00000000  0.57850000  0.84850000  1.0 -0.6463723293
O  O100  1  0.00000000  0.65170000  0.92150000  1.0 -0.6116900504
O  O101  1  0.00000000  0.92150000  0.65150000  1.0 -0.6167702934
O  O102  1  0.00000000  0.84830000  0.57850000  1.0 -0.689290763
O  O103  1  0.00000000  0.68904000  0.39319000  1.0 -0.5321921766
O  O104  1  0.00000000  0.57850000  0.15150000  1.0 -0.6463723293
O  O105  1  0.00000000  0.65170000  0.07850000  1.0 -0.6116900504
O  O106  1  0.00000000  0.92150000  0.34850000  1.0 -0.6167702934
O  O107  1  0.00000000  0.84830000  0.42150000  1.0 -0.689290763
O  O108  1  0.00000000  0.31096000  0.60681000  1.0 -0.5321921766
O  O109  1  0.00000000  0.42150000  0.84850000  1.0 -0.6463723293
O  O110  1  0.00000000  0.34830000  0.92150000  1.0 -0.6116900504
O  O111  1  0.00000000  0.07850000  0.65150000  1.0 -0.6167702934
O  O112  1  0.00000000  0.15170000  0.57850000  1.0 -0.689290763
O  O113  1  0.39319000  0.00000000  0.31096000  1.0 -0.5321921766
O  O114  1  0.15150000  0.00000000  0.42150000  1.0 -0.6463723293
O  O115  1  0.07850000  0.00000000  0.34830000  1.0 -0.6116900504
O  O116  1  0.34850000  0.00000000  0.07850000  1.0 -0.6167702934
O  O117  1  0.42150000  0.00000000  0.15170000  1.0 -0.689290763
O  O118  1  0.60681000  0.00000000  0.68904000  1.0 -0.5321921766
O  O119  1  0.84850000  0.00000000  0.57850000  1.0 -0.6463723293
O  O120  1  0.92150000  0.00000000  0.65170000  1.0 -0.6116900504
O  O121  1  0.65150000  0.00000000  0.92150000  1.0 -0.6167702934
O  O122  1  0.57850000  0.00000000  0.84830000  1.0 -0.689290763
O  O123  1  0.39319000  0.00000000  0.68904000  1.0 -0.5321921766
O  O124  1  0.15150000  0.00000000  0.57850000  1.0 -0.6463723293
O  O125  1  0.07850000  0.00000000  0.65170000  1.0 -0.6116900504
O  O126  1  0.34850000  0.00000000  0.92150000  1.0 -0.6167702934
O  O127  1  0.42150000  0.00000000  0.84830000  1.0 -0.689290763
O  O128  1  0.60681000  0.00000000  0.31096000  1.0 -0.5321921766
O  O129  1  0.84850000  0.00000000  0.42150000  1.0 -0.6463723293
O  O130  1  0.92150000  0.00000000  0.34830000  1.0 -0.6116900504
O  O131  1  0.65150000  0.00000000  0.07850000  1.0 -0.6167702934
O  O132  1  0.57850000  0.00000000  0.15170000  1.0 -0.689290763
