# DDEC6 charges by PACMAN v1.1 (https://github.com/mtap-research/PACMAN-charge/)
data_YUJLUN_FSR_pacman
_symmetry_space_group_name_H-M   'P 1'
_cell_length_a   11.27000000
_cell_length_b   29.55000000
_cell_length_c   11.47500000
_cell_angle_alpha   90.00000000
_cell_angle_beta   105.41000000
_cell_angle_gamma   90.00000000
_symmetry_Int_Tables_number   1
_chemical_formula_structural   Cu3Ag2H19C18N13O18
_chemical_formula_sum   'Cu12 Ag8 H76 C72 N52 O72'
_cell_volume   3684.11537544
_cell_formula_units_Z   4
loop_
 _symmetry_equiv_pos_site_id
 _symmetry_equiv_pos_as_xyz
  1  'x, y, z'
loop_
 _atom_site_type_symbol
 _atom_site_label
 _atom_site_symmetry_multiplicity
 _atom_site_fract_x
 _atom_site_fract_y
 _atom_site_fract_z
 _atom_site_occupancy
 _atom_site_charge
Cu  Cu1  1  0.28853000  0.41270000  0.78891000  1.0 0.7085261492
Cu  Cu2  1  0.33581000  0.31822000  0.66891000  1.0 0.7192235737
Cu  Cu3  1  0.46393000  0.40794000  0.60466000  1.0 0.6910236774
Cu  Cu4  1  0.21147000  0.91270000  0.21109000  1.0 0.7085261492
Cu  Cu5  1  0.16419000  0.81822000  0.33109000  1.0 0.7192235737
Cu  Cu6  1  0.03607000  0.90794000  0.39534000  1.0 0.6910236774
Cu  Cu7  1  0.71147000  0.58730000  0.21109000  1.0 0.7085261492
Cu  Cu8  1  0.66419000  0.68178000  0.33109000  1.0 0.7192235737
Cu  Cu9  1  0.53607000  0.59206000  0.39534000  1.0 0.6910236774
Cu  Cu10  1  0.78853000  0.08730000  0.78891000  1.0 0.7085261492
Cu  Cu11  1  0.83581000  0.18178000  0.66891000  1.0 0.7192235737
Cu  Cu12  1  0.96393000  0.09206000  0.60466000  1.0 0.6910236774
Ag  Ag1  1  0.15858000  0.59229000  0.13319000  1.0 0.3500830977
Ag  Ag2  1  0.96943000  0.43882000  0.35780000  1.0 0.3679542168
Ag  Ag3  1  0.34142000  0.09229000  0.86681000  1.0 0.3500830977
Ag  Ag4  1  0.53057000  0.93882000  0.64220000  1.0 0.3679542168
Ag  Ag5  1  0.84142000  0.40771000  0.86681000  1.0 0.3500830977
Ag  Ag6  1  0.03057000  0.56118000  0.64220000  1.0 0.3679542168
Ag  Ag7  1  0.65858000  0.90771000  0.13319000  1.0 0.3500830977
Ag  Ag8  1  0.46943000  0.06118000  0.35780000  1.0 0.3679542168
H  H1  1  0.25503000  0.38821000  0.58622000  1.0 0.3375364988
H  H2  1  0.63229000  0.48924000  0.57548000  1.0 0.1213971901
H  H3  1  0.77554000  0.37028000  0.40113000  1.0 0.1213971901
H  H4  1  0.15017000  0.42214000  0.99570000  1.0 0.1294628641
H  H5  1  0.45294000  0.15404000  0.69475000  1.0 0.1213971901
H  H6  1  0.11348000  0.48059000  0.11003000  1.0 0.1213971901
H  H7  1  0.32654000  0.56130000  0.97274000  1.0 0.1086618172
H  H8  1  0.79237000  0.49840000  0.48394000  1.0 0.1086618172
H  H9  1  0.25525000  0.19349000  0.90729000  1.0 0.1086618172
H  H10  1  0.43313000  0.22462000  0.60271000  1.0 0.1294628641
H  H11  1  0.42339000  0.55842000  0.73663000  1.0 0.1496540925
H  H12  1  0.54255000  0.53585000  0.81827000  1.0 0.1648606358
H  H13  1  0.45626000  0.56417000  0.87741000  1.0 0.1496540925
H  H14  1  0.63434000  0.27791000  0.49975000  1.0 0.1686745222
H  H15  1  0.68875000  0.30661000  0.41126000  1.0 0.1496540925
H  H16  1  0.54926000  0.29306000  0.37434000  1.0 0.1686745222
H  H17  1  0.19120000  0.30422000  0.00239000  1.0 0.1686745222
H  H18  1  0.19921000  0.25139000  0.99492000  1.0 0.1496540925
H  H19  1  0.08534000  0.27709000  0.91365000  1.0 0.1496540925
H  H20  1  0.24497000  0.88821000  0.41378000  1.0 0.3375364988
H  H21  1  0.86771000  0.98924000  0.42452000  1.0 0.1213971901
H  H22  1  0.72446000  0.87028000  0.59887000  1.0 0.1213971901
H  H23  1  0.34983000  0.92214000  0.00430000  1.0 0.1294628641
H  H24  1  0.04706000  0.65404000  0.30525000  1.0 0.1213971901
H  H25  1  0.38652000  0.98059000  0.88997000  1.0 0.1213971901
H  H26  1  0.17346000  0.06130000  0.02726000  1.0 0.1086618172
H  H27  1  0.70763000  0.99840000  0.51606000  1.0 0.1086618172
H  H28  1  0.24475000  0.69349000  0.09271000  1.0 0.1086618172
H  H29  1  0.06687000  0.72462000  0.39729000  1.0 0.1294628641
H  H30  1  0.07661000  0.05842000  0.26337000  1.0 0.1496540925
H  H31  1  0.95745000  0.03585000  0.18173000  1.0 0.1648606358
H  H32  1  0.04374000  0.06417000  0.12259000  1.0 0.1496540925
H  H33  1  0.86566000  0.77791000  0.50025000  1.0 0.1686745222
H  H34  1  0.81125000  0.80661000  0.58874000  1.0 0.1496540925
H  H35  1  0.95074000  0.79306000  0.62566000  1.0 0.1686745222
H  H36  1  0.30880000  0.80422000  0.99761000  1.0 0.1686745222
H  H37  1  0.30079000  0.75139000  0.00508000  1.0 0.1496540925
H  H38  1  0.41466000  0.77709000  0.08635000  1.0 0.1496540925
H  H39  1  0.74497000  0.61179000  0.41378000  1.0 0.3375364988
H  H40  1  0.36771000  0.51076000  0.42452000  1.0 0.1213971901
H  H41  1  0.22446000  0.62972000  0.59887000  1.0 0.1213971901
H  H42  1  0.84983000  0.57786000  0.00430000  1.0 0.1294628641
H  H43  1  0.54706000  0.84596000  0.30525000  1.0 0.1213971901
H  H44  1  0.88652000  0.51941000  0.88997000  1.0 0.1213971901
H  H45  1  0.67346000  0.43870000  0.02726000  1.0 0.1086618172
H  H46  1  0.20763000  0.50160000  0.51606000  1.0 0.1086618172
H  H47  1  0.74475000  0.80651000  0.09271000  1.0 0.1086618172
H  H48  1  0.56687000  0.77538000  0.39729000  1.0 0.1294628641
H  H49  1  0.57661000  0.44158000  0.26337000  1.0 0.1496540925
H  H50  1  0.45745000  0.46415000  0.18173000  1.0 0.1648606358
H  H51  1  0.54374000  0.43583000  0.12259000  1.0 0.1496540925
H  H52  1  0.36566000  0.72209000  0.50025000  1.0 0.1686745222
H  H53  1  0.31125000  0.69339000  0.58874000  1.0 0.1496540925
H  H54  1  0.45074000  0.70694000  0.62566000  1.0 0.1686745222
H  H55  1  0.80880000  0.69578000  0.99761000  1.0 0.1686745222
H  H56  1  0.80079000  0.74861000  0.00508000  1.0 0.1496540925
H  H57  1  0.91466000  0.72291000  0.08635000  1.0 0.1496540925
H  H58  1  0.75503000  0.11179000  0.58622000  1.0 0.3375364988
H  H59  1  0.13229000  0.01076000  0.57548000  1.0 0.1213971901
H  H60  1  0.27554000  0.12972000  0.40113000  1.0 0.1213971901
H  H61  1  0.65017000  0.07786000  0.99570000  1.0 0.1294628641
H  H62  1  0.95294000  0.34596000  0.69475000  1.0 0.1213971901
H  H63  1  0.61348000  0.01941000  0.11003000  1.0 0.1213971901
H  H64  1  0.82654000  0.93870000  0.97274000  1.0 0.1086618172
H  H65  1  0.29237000  0.00160000  0.48394000  1.0 0.1086618172
H  H66  1  0.75525000  0.30651000  0.90729000  1.0 0.1086618172
H  H67  1  0.93313000  0.27538000  0.60271000  1.0 0.1294628641
H  H68  1  0.92339000  0.94158000  0.73663000  1.0 0.1496540925
H  H69  1  0.04255000  0.96415000  0.81827000  1.0 0.1648606358
H  H70  1  0.95626000  0.93583000  0.87741000  1.0 0.1496540925
H  H71  1  0.13434000  0.22209000  0.49975000  1.0 0.1686745222
H  H72  1  0.18875000  0.19339000  0.41126000  1.0 0.1496540925
H  H73  1  0.04926000  0.20694000  0.37434000  1.0 0.1686745222
H  H74  1  0.69120000  0.19578000  0.00239000  1.0 0.1686745222
H  H75  1  0.69921000  0.24861000  0.99492000  1.0 0.1496540925
H  H76  1  0.58534000  0.22291000  0.91365000  1.0 0.1496540925
C  C1  1  0.66030000  0.46460000  0.54000000  1.0 0.0737627203
C  C2  1  0.65140000  0.38820000  0.48980000  1.0 0.1086618172
C  C3  1  0.29320000  0.24430000  0.80400000  1.0 0.1294628641
C  C4  1  0.38570000  0.50140000  0.82220000  1.0 0.1884413211
C  C5  1  0.74720000  0.39490000  0.43650000  1.0 0.0037457487
C  C6  1  0.18490000  0.45030000  0.99030000  1.0 0.039360456
C  C7  1  0.40500000  0.17600000  0.71820000  1.0 0.0515381934
C  C8  1  0.16380000  0.48540000  0.05880000  1.0 0.0037457487
C  C9  1  0.30560000  0.49700000  0.90240000  1.0 0.1387131809
C  C10  1  0.28840000  0.53370000  0.97660000  1.0 -0.0327837711
C  C11  1  0.75750000  0.46990000  0.48480000  1.0 0.039360456
C  C12  1  0.23630000  0.28290000  0.85430000  1.0 0.1763777285
C  C13  1  0.29190000  0.19970000  0.84540000  1.0 -0.0608531443
C  C14  1  0.40140000  0.21940000  0.66850000  1.0 0.0037457487
C  C15  1  0.45870000  0.54390000  0.81280000  1.0 -0.4806654455
C  C16  1  0.58640000  0.34450000  0.49710000  1.0 0.2150733767
C  C17  1  0.61750000  0.30160000  0.44050000  1.0 -0.4637857975
C  C18  1  0.17250000  0.27850000  0.94950000  1.0 -0.4425557108
C  C19  1  0.83970000  0.96460000  0.46000000  1.0 0.0737627203
C  C20  1  0.84860000  0.88820000  0.51020000  1.0 0.1086618172
C  C21  1  0.20680000  0.74430000  0.19600000  1.0 0.1294628641
C  C22  1  0.11430000  0.00140000  0.17780000  1.0 0.1884413211
C  C23  1  0.75280000  0.89490000  0.56350000  1.0 0.0037457487
C  C24  1  0.31510000  0.95030000  0.00970000  1.0 0.039360456
C  C25  1  0.09500000  0.67600000  0.28180000  1.0 0.0515381934
C  C26  1  0.33620000  0.98540000  0.94120000  1.0 0.0037457487
C  C27  1  0.19440000  0.99700000  0.09760000  1.0 0.1387131809
C  C28  1  0.21160000  0.03370000  0.02340000  1.0 -0.0327837711
C  C29  1  0.74250000  0.96990000  0.51520000  1.0 0.039360456
C  C30  1  0.26370000  0.78290000  0.14570000  1.0 0.1763777285
C  C31  1  0.20810000  0.69970000  0.15460000  1.0 -0.0608531443
C  C32  1  0.09860000  0.71940000  0.33150000  1.0 0.0037457487
C  C33  1  0.04130000  0.04390000  0.18720000  1.0 -0.4806654455
C  C34  1  0.91360000  0.84450000  0.50290000  1.0 0.2150733767
C  C35  1  0.88250000  0.80160000  0.55950000  1.0 -0.4651128651
C  C36  1  0.32750000  0.77850000  0.05050000  1.0 -0.4425557108
C  C37  1  0.33970000  0.53540000  0.46000000  1.0 0.0737627203
C  C38  1  0.34860000  0.61180000  0.51020000  1.0 0.1086618172
C  C39  1  0.70680000  0.75570000  0.19600000  1.0 0.1294628641
C  C40  1  0.61430000  0.49860000  0.17780000  1.0 0.1884413211
C  C41  1  0.25280000  0.60510000  0.56350000  1.0 0.0037457487
C  C42  1  0.81510000  0.54970000  0.00970000  1.0 0.039360456
C  C43  1  0.59500000  0.82400000  0.28180000  1.0 0.0515381934
C  C44  1  0.83620000  0.51460000  0.94120000  1.0 0.0037457487
C  C45  1  0.69440000  0.50300000  0.09760000  1.0 0.1387131809
C  C46  1  0.71160000  0.46630000  0.02340000  1.0 -0.0327837711
C  C47  1  0.24250000  0.53010000  0.51520000  1.0 0.039360456
C  C48  1  0.76370000  0.71710000  0.14570000  1.0 0.1763777285
C  C49  1  0.70810000  0.80030000  0.15460000  1.0 -0.0608531443
C  C50  1  0.59860000  0.78060000  0.33150000  1.0 0.0037457487
C  C51  1  0.54130000  0.45610000  0.18720000  1.0 -0.4806654455
C  C52  1  0.41360000  0.65550000  0.50290000  1.0 0.2150733767
C  C53  1  0.38250000  0.69840000  0.55950000  1.0 -0.4651128651
C  C54  1  0.82750000  0.72150000  0.05050000  1.0 -0.4425557108
C  C55  1  0.16030000  0.03540000  0.54000000  1.0 0.0737627203
C  C56  1  0.15140000  0.11180000  0.48980000  1.0 0.1086618172
C  C57  1  0.79320000  0.25570000  0.80400000  1.0 0.1294628641
C  C58  1  0.88570000  0.99860000  0.82220000  1.0 0.1884413211
C  C59  1  0.24720000  0.10510000  0.43650000  1.0 0.0037457487
C  C60  1  0.68490000  0.04970000  0.99030000  1.0 0.039360456
C  C61  1  0.90500000  0.32400000  0.71820000  1.0 0.0515381934
C  C62  1  0.66380000  0.01460000  0.05880000  1.0 0.0037457487
C  C63  1  0.80560000  0.00300000  0.90240000  1.0 0.1387131809
C  C64  1  0.78840000  0.96630000  0.97660000  1.0 -0.0327837711
C  C65  1  0.25750000  0.03010000  0.48480000  1.0 0.039360456
C  C66  1  0.73630000  0.21710000  0.85430000  1.0 0.1763777285
C  C67  1  0.79190000  0.30030000  0.84540000  1.0 -0.0608531443
C  C68  1  0.90140000  0.28060000  0.66850000  1.0 0.0061647667
C  C69  1  0.95870000  0.95610000  0.81280000  1.0 -0.4806654455
C  C70  1  0.08640000  0.15550000  0.49710000  1.0 0.2150733767
C  C71  1  0.11750000  0.19840000  0.44050000  1.0 -0.4651128651
C  C72  1  0.67250000  0.22150000  0.94950000  1.0 -0.4425557108
N  N1  1  0.25060000  0.32160000  0.80020000  1.0 -0.1053186359
N  N2  1  0.38550000  0.46550000  0.75820000  1.0 -0.1163912231
N  N3  1  0.50170000  0.34780000  0.54670000  1.0 -0.1434679145
N  N4  1  0.60960000  0.42440000  0.54100000  1.0 -0.2397623567
N  N5  1  0.35030000  0.25440000  0.71810000  1.0 -0.2496430279
N  N6  1  0.25730000  0.45680000  0.91360000  1.0 -0.2496430279
N  N7  1  0.34380000  0.16520000  0.79600000  1.0 -0.179201983
N  N8  1  0.80070000  0.43530000  0.43400000  1.0 -0.1702429505
N  N9  1  0.99010000  0.54040000  0.30350000  1.0 0.640705496
N  N10  1  0.21370000  0.52790000  0.05550000  1.0 -0.1931954959
N  N11  1  0.55050000  0.36790000  0.89970000  1.0 0.5683815478
N  N12  1  0.24810000  0.41730000  0.36020000  1.0 0.6051852106
N  N13  1  0.06530000  0.33440000  0.47860000  1.0 0.6910236774
N  N14  1  0.24940000  0.82160000  0.19980000  1.0 -0.1044146793
N  N15  1  0.11450000  0.96550000  0.24180000  1.0 -0.1163912231
N  N16  1  0.99830000  0.84780000  0.45330000  1.0 -0.1434679145
N  N17  1  0.89040000  0.92440000  0.45900000  1.0 -0.2397623567
N  N18  1  0.14970000  0.75440000  0.28190000  1.0 -0.2552038433
N  N19  1  0.24270000  0.95680000  0.08640000  1.0 -0.2496430279
N  N20  1  0.15620000  0.66520000  0.20400000  1.0 -0.179201983
N  N21  1  0.69930000  0.93530000  0.56600000  1.0 -0.1702429505
N  N22  1  0.50990000  0.04040000  0.69650000  1.0 0.640705496
N  N23  1  0.28630000  0.02790000  0.94450000  1.0 -0.1931954959
N  N24  1  0.94950000  0.86790000  0.10030000  1.0 0.5683815478
N  N25  1  0.25190000  0.91730000  0.63980000  1.0 0.6051852106
N  N26  1  0.43470000  0.83440000  0.52140000  1.0 0.6910236774
N  N27  1  0.74940000  0.67840000  0.19980000  1.0 -0.1044146793
N  N28  1  0.61450000  0.53450000  0.24180000  1.0 -0.1163912231
N  N29  1  0.49830000  0.65220000  0.45330000  1.0 -0.1434679145
N  N30  1  0.39040000  0.57560000  0.45900000  1.0 -0.2397623567
N  N31  1  0.64970000  0.74560000  0.28190000  1.0 -0.2496430279
N  N32  1  0.74270000  0.54320000  0.08640000  1.0 -0.2496430279
N  N33  1  0.65620000  0.83480000  0.20400000  1.0 -0.179201983
N  N34  1  0.19930000  0.56470000  0.56600000  1.0 -0.1702429505
N  N35  1  0.00990000  0.45960000  0.69650000  1.0 0.640705496
N  N36  1  0.78630000  0.47210000  0.94450000  1.0 -0.1931954959
N  N37  1  0.44950000  0.63210000  0.10030000  1.0 0.5683815478
N  N38  1  0.75190000  0.58270000  0.63980000  1.0 0.6051852106
N  N39  1  0.93470000  0.66560000  0.52140000  1.0 0.6910236774
N  N40  1  0.75060000  0.17840000  0.80020000  1.0 -0.1044146793
N  N41  1  0.88550000  0.03450000  0.75820000  1.0 -0.1163912231
N  N42  1  0.00170000  0.15220000  0.54670000  1.0 -0.1434679145
N  N43  1  0.10960000  0.07560000  0.54100000  1.0 -0.2397623567
N  N44  1  0.85030000  0.24560000  0.71810000  1.0 -0.2496430279
N  N45  1  0.75730000  0.04320000  0.91360000  1.0 -0.2496430279
N  N46  1  0.84380000  0.33480000  0.79600000  1.0 -0.179201983
N  N47  1  0.30070000  0.06470000  0.43400000  1.0 -0.1702429505
N  N48  1  0.49010000  0.95960000  0.30350000  1.0 0.640705496
N  N49  1  0.71370000  0.97210000  0.05550000  1.0 -0.1931954959
N  N50  1  0.05050000  0.13210000  0.89970000  1.0 0.5683815478
N  N51  1  0.74810000  0.08270000  0.36020000  1.0 0.6051852106
N  N52  1  0.56530000  0.16560000  0.47860000  1.0 0.6910236774
O  O1  1  0.31770000  0.38350000  0.64650000  1.0 -0.7530897559
O  O2  1  0.45330000  0.46570000  0.67870000  1.0 -0.3995188228
O  O3  1  0.21150000  0.35910000  0.83760000  1.0 -0.3185272576
O  O4  1  0.43590000  0.30990000  0.55650000  1.0 -0.3995188228
O  O5  1  0.90850000  0.53610000  0.35290000  1.0 -0.3995188228
O  O6  1  0.03630000  0.50710000  0.27480000  1.0 -0.3714563103
O  O7  1  0.01570000  0.57740000  0.26860000  1.0 -0.3802049162
O  O8  1  0.47210000  0.38750000  0.93550000  1.0 -0.4092440979
O  O9  1  0.64430000  0.36040000  0.99140000  1.0 -0.389556721
O  O10  1  0.35410000  0.42300000  0.39300000  1.0 -0.3514324577
O  O11  1  0.18530000  0.42030000  0.42950000  1.0 -0.179201983
O  O12  1  0.15200000  0.30570000  0.51900000  1.0 -0.4806654455
O  O13  1  0.19700000  0.41400000  0.25520000  1.0 -0.3257871271
O  O14  1  0.95650000  0.32210000  0.41850000  1.0 -0.4637857975
O  O15  1  0.09400000  0.37730000  0.47900000  1.0 -0.3714563103
O  O16  1  0.54200000  0.35710000  0.79400000  1.0 0.2277700192
O  O17  1  0.52800000  0.32560000  0.85000000  1.0 -0.2095318252
O  O18  1  0.60700000  0.38980000  0.81000000  1.0 -0.2397623567
O  O19  1  0.18230000  0.88350000  0.35350000  1.0 -0.7530897559
O  O20  1  0.04670000  0.96570000  0.32130000  1.0 -0.3995188228
O  O21  1  0.28850000  0.85910000  0.16240000  1.0 -0.3185272576
O  O22  1  0.06410000  0.80990000  0.44350000  1.0 -0.3995188228
O  O23  1  0.59150000  0.03610000  0.64710000  1.0 -0.3995188228
O  O24  1  0.46370000  0.00710000  0.72520000  1.0 -0.3714563103
O  O25  1  0.48430000  0.07740000  0.73140000  1.0 -0.3802049162
O  O26  1  0.02790000  0.88750000  0.06450000  1.0 -0.4092440979
O  O27  1  0.85570000  0.86040000  0.00860000  1.0 -0.389556721
O  O28  1  0.14590000  0.92300000  0.60700000  1.0 -0.3514324577
O  O29  1  0.31470000  0.92030000  0.57050000  1.0 -0.179201983
O  O30  1  0.34800000  0.80570000  0.48100000  1.0 -0.4806654455
O  O31  1  0.30300000  0.91400000  0.74480000  1.0 -0.3257871271
O  O32  1  0.54350000  0.82210000  0.58150000  1.0 -0.4637857975
O  O33  1  0.40600000  0.87730000  0.52100000  1.0 -0.3714563103
O  O34  1  0.95800000  0.85710000  0.20600000  1.0 0.2277700192
O  O35  1  0.97200000  0.82560000  0.15000000  1.0 -0.2095318252
O  O36  1  0.89300000  0.88980000  0.19000000  1.0 -0.2397623567
O  O37  1  0.68230000  0.61650000  0.35350000  1.0 -0.7530897559
O  O38  1  0.54670000  0.53430000  0.32130000  1.0 -0.3995188228
O  O39  1  0.78850000  0.64090000  0.16240000  1.0 -0.3185272576
O  O40  1  0.56410000  0.69010000  0.44350000  1.0 -0.3995188228
O  O41  1  0.09150000  0.46390000  0.64710000  1.0 -0.3995188228
O  O42  1  0.96370000  0.49290000  0.72520000  1.0 -0.3714563103
O  O43  1  0.98430000  0.42260000  0.73140000  1.0 -0.3802049162
O  O44  1  0.52790000  0.61250000  0.06450000  1.0 -0.4092440979
O  O45  1  0.35570000  0.63960000  0.00860000  1.0 -0.389556721
O  O46  1  0.64590000  0.57700000  0.60700000  1.0 -0.3514324577
O  O47  1  0.81470000  0.57970000  0.57050000  1.0 -0.179201983
O  O48  1  0.84800000  0.69430000  0.48100000  1.0 -0.4806654455
O  O49  1  0.80300000  0.58600000  0.74480000  1.0 -0.3257871271
O  O50  1  0.04350000  0.67790000  0.58150000  1.0 -0.4637857975
O  O51  1  0.90600000  0.62270000  0.52100000  1.0 -0.3714563103
O  O52  1  0.45800000  0.64290000  0.20600000  1.0 0.2277700192
O  O53  1  0.47200000  0.67440000  0.15000000  1.0 -0.2095318252
O  O54  1  0.39300000  0.61020000  0.19000000  1.0 -0.2397623567
O  O55  1  0.81770000  0.11650000  0.64650000  1.0 -0.7530897559
O  O56  1  0.95330000  0.03430000  0.67870000  1.0 -0.3995188228
O  O57  1  0.71150000  0.14090000  0.83760000  1.0 -0.3185272576
O  O58  1  0.93590000  0.19010000  0.55650000  1.0 -0.3995188228
O  O59  1  0.40850000  0.96390000  0.35290000  1.0 -0.3995188228
O  O60  1  0.53630000  0.99290000  0.27480000  1.0 -0.3714563103
O  O61  1  0.51570000  0.92260000  0.26860000  1.0 -0.3802049162
O  O62  1  0.97210000  0.11250000  0.93550000  1.0 -0.4092440979
O  O63  1  0.14430000  0.13960000  0.99140000  1.0 -0.389556721
O  O64  1  0.85410000  0.07700000  0.39300000  1.0 -0.3514324577
O  O65  1  0.68530000  0.07970000  0.42950000  1.0 -0.179201983
O  O66  1  0.65200000  0.19430000  0.51900000  1.0 -0.4806654455
O  O67  1  0.69700000  0.08600000  0.25520000  1.0 -0.3185272576
O  O68  1  0.45650000  0.17790000  0.41850000  1.0 -0.4637857975
O  O69  1  0.59400000  0.12270000  0.47900000  1.0 -0.3714563103
O  O70  1  0.04200000  0.14290000  0.79400000  1.0 0.2277700192
O  O71  1  0.02800000  0.17440000  0.85000000  1.0 -0.2095318252
O  O72  1  0.10700000  0.11020000  0.81000000  1.0 -0.2397623567
