# DDEC6 charges by PACMAN v1.1 (https://github.com/mtap-research/PACMAN-charge/)
data_YUMVIO_ASR_pacman
_symmetry_space_group_name_H-M   'P 1'
_cell_length_a   5.68030000
_cell_length_b   10.50550000
_cell_length_c   30.69530000
_cell_angle_alpha   90.00000000
_cell_angle_beta   97.15330000
_cell_angle_gamma   90.00000000
_symmetry_Int_Tables_number   1
_chemical_formula_structural   CdH10C12S(NO)4
_chemical_formula_sum   'Cd4 H40 C48 S4 N16 O16'
_cell_volume   1817.46618467
_cell_formula_units_Z   4
loop_
 _symmetry_equiv_pos_site_id
 _symmetry_equiv_pos_as_xyz
  1  'x, y, z'
loop_
 _atom_site_type_symbol
 _atom_site_label
 _atom_site_symmetry_multiplicity
 _atom_site_fract_x
 _atom_site_fract_y
 _atom_site_fract_z
 _atom_site_occupancy
 _atom_site_charge
Cd  Cd1  1  0.18741000  0.74806000  0.26091000  1.0 0.9772535619
Cd  Cd2  1  0.81259000  0.24806000  0.23909000  1.0 0.9772535619
Cd  Cd3  1  0.81259000  0.25194000  0.73909000  1.0 0.9772535619
Cd  Cd4  1  0.18741000  0.75194000  0.76091000  1.0 0.9772535619
H  H1  1  0.41700000  0.76900000  0.67290000  1.0 0.1194596615
H  H2  1  0.34040000  0.74180000  0.59720000  1.0 0.1363914516
H  H3  1  0.71550000  0.58820000  0.61440000  1.0 0.1194596615
H  H4  1  0.81200000  0.61470000  0.68900000  1.0 0.1118590828
H  H5  1  0.60510000  0.62630000  0.32760000  1.0 0.1118590828
H  H6  1  0.73930000  0.59660000  0.40020000  1.0 0.1194596615
H  H7  1  0.12750000  0.74300000  0.42880000  1.0 0.1348124501
H  H8  1  0.01650000  0.77480000  0.35480000  1.0 0.1118590828
H  H9  1  0.41860000  0.67700000  0.49050000  1.0 0.1018193551
H  H10  1  0.07050000  0.67280000  0.53140000  1.0 0.1018193551
H  H11  1  0.58300000  0.26900000  0.82710000  1.0 0.1194596615
H  H12  1  0.65960000  0.24180000  0.90280000  1.0 0.1363914516
H  H13  1  0.28450000  0.08820000  0.88560000  1.0 0.1194596615
H  H14  1  0.18800000  0.11470000  0.81100000  1.0 0.1118590828
H  H15  1  0.39490000  0.12630000  0.17240000  1.0 0.1118590828
H  H16  1  0.26070000  0.09660000  0.09980000  1.0 0.1194596615
H  H17  1  0.87250000  0.24300000  0.07120000  1.0 0.1348124501
H  H18  1  0.98350000  0.27480000  0.14520000  1.0 0.1118590828
H  H19  1  0.58140000  0.17700000  0.00950000  1.0 0.1018193551
H  H20  1  0.92950000  0.17280000  0.96860000  1.0 0.1018193551
H  H21  1  0.58300000  0.23100000  0.32710000  1.0 0.1194596615
H  H22  1  0.65960000  0.25820000  0.40280000  1.0 0.1363914516
H  H23  1  0.28450000  0.41180000  0.38560000  1.0 0.1194596615
H  H24  1  0.18800000  0.38530000  0.31100000  1.0 0.1118590828
H  H25  1  0.39490000  0.37370000  0.67240000  1.0 0.1118590828
H  H26  1  0.26070000  0.40340000  0.59980000  1.0 0.1194596615
H  H27  1  0.87250000  0.25700000  0.57120000  1.0 0.1348124501
H  H28  1  0.98350000  0.22520000  0.64520000  1.0 0.1118590828
H  H29  1  0.58140000  0.32300000  0.50950000  1.0 0.1018193551
H  H30  1  0.92950000  0.32720000  0.46860000  1.0 0.1018193551
H  H31  1  0.41700000  0.73100000  0.17290000  1.0 0.1194596615
H  H32  1  0.34040000  0.75820000  0.09720000  1.0 0.1363914516
H  H33  1  0.71550000  0.91180000  0.11440000  1.0 0.1194596615
H  H34  1  0.81200000  0.88530000  0.18900000  1.0 0.1118590828
H  H35  1  0.60510000  0.87370000  0.82760000  1.0 0.1118590828
H  H36  1  0.73930000  0.90340000  0.90020000  1.0 0.1194596615
H  H37  1  0.12750000  0.75700000  0.92880000  1.0 0.1348124501
H  H38  1  0.01650000  0.72520000  0.85480000  1.0 0.1118590828
H  H39  1  0.41860000  0.82300000  0.99050000  1.0 0.1018193551
H  H40  1  0.07050000  0.82720000  0.03140000  1.0 0.1018193551
C  C1  1  0.27450000  0.73240000  0.66090000  1.0 0.1118590828
C  C2  1  0.22920000  0.71630000  0.61520000  1.0 -0.1895449614
C  C3  1  0.01960000  0.66260000  0.59760000  1.0 0.1194596615
C  C4  1  0.85950000  0.62480000  0.62550000  1.0 -0.1820481711
C  C5  1  0.91820000  0.64220000  0.67020000  1.0 0.0852125791
C  C6  1  0.50870000  0.65130000  0.34840000  1.0 0.0835283703
C  C7  1  0.59170000  0.63320000  0.39170000  1.0 -0.1895449614
C  C8  1  0.44570000  0.67190000  0.42270000  1.0 0.1194596615
C  C9  1  0.22970000  0.72070000  0.40870000  1.0 -0.1820481711
C  C10  1  0.16250000  0.73750000  0.36400000  1.0 0.1018193551
C  C11  1  0.52580000  0.65910000  0.47080000  1.0 0.059105835
C  C12  1  0.95550000  0.65470000  0.54950000  1.0 0.059105835
C  C13  1  0.72550000  0.23240000  0.83910000  1.0 0.1118590828
C  C14  1  0.77080000  0.21630000  0.88480000  1.0 -0.1895449614
C  C15  1  0.98040000  0.16260000  0.90240000  1.0 0.1194596615
C  C16  1  0.14050000  0.12480000  0.87450000  1.0 -0.1820481711
C  C17  1  0.08180000  0.14220000  0.82980000  1.0 0.0835283703
C  C18  1  0.49130000  0.15130000  0.15160000  1.0 0.0835283703
C  C19  1  0.40830000  0.13320000  0.10830000  1.0 -0.1895449614
C  C20  1  0.55430000  0.17190000  0.07730000  1.0 0.1194596615
C  C21  1  0.77030000  0.22070000  0.09130000  1.0 -0.1820481711
C  C22  1  0.83750000  0.23750000  0.13600000  1.0 0.1018193551
C  C23  1  0.47420000  0.15910000  0.02920000  1.0 0.059105835
C  C24  1  0.04450000  0.15470000  0.95050000  1.0 0.059105835
C  C25  1  0.72550000  0.26760000  0.33910000  1.0 0.1118590828
C  C26  1  0.77080000  0.28370000  0.38480000  1.0 -0.1895449614
C  C27  1  0.98040000  0.33740000  0.40240000  1.0 0.1194596615
C  C28  1  0.14050000  0.37520000  0.37450000  1.0 -0.1820481711
C  C29  1  0.08180000  0.35780000  0.32980000  1.0 0.0835283703
C  C30  1  0.49130000  0.34870000  0.65160000  1.0 0.0835283703
C  C31  1  0.40830000  0.36680000  0.60830000  1.0 -0.1895449614
C  C32  1  0.55430000  0.32810000  0.57730000  1.0 0.1194596615
C  C33  1  0.77030000  0.27930000  0.59130000  1.0 -0.1820481711
C  C34  1  0.83750000  0.26250000  0.63600000  1.0 0.1018193551
C  C35  1  0.47420000  0.34090000  0.52920000  1.0 0.059105835
C  C36  1  0.04450000  0.34530000  0.45050000  1.0 0.059105835
C  C37  1  0.27450000  0.76760000  0.16090000  1.0 0.1118590828
C  C38  1  0.22920000  0.78370000  0.11520000  1.0 -0.1895449614
C  C39  1  0.01960000  0.83740000  0.09760000  1.0 0.1194596615
C  C40  1  0.85950000  0.87520000  0.12550000  1.0 -0.1820481711
C  C41  1  0.91820000  0.85780000  0.17020000  1.0 0.0852125791
C  C42  1  0.50870000  0.84870000  0.84840000  1.0 0.0835283703
C  C43  1  0.59170000  0.86680000  0.89170000  1.0 -0.1895449614
C  C44  1  0.44570000  0.82810000  0.92270000  1.0 0.1194596615
C  C45  1  0.22970000  0.77930000  0.90870000  1.0 -0.1820481711
C  C46  1  0.16250000  0.76250000  0.86400000  1.0 0.1018193551
C  C47  1  0.52580000  0.84090000  0.97080000  1.0 0.059105835
C  C48  1  0.95550000  0.84530000  0.04950000  1.0 0.059105835
S  S1  1  0.30241000  0.44080000  0.21851000  1.0 1.418250328
S  S2  1  0.69759000  0.94080000  0.28149000  1.0 1.418250328
S  S3  1  0.69759000  0.55920000  0.78149000  1.0 1.418250328
S  S4  1  0.30241000  0.05920000  0.71851000  1.0 1.418250328
N  N1  1  0.11960000  0.69670000  0.68720000  1.0 -0.214010546
N  N2  1  0.29880000  0.70240000  0.33420000  1.0 -0.2251114044
N  N3  1  0.72760000  0.62600000  0.48530000  1.0 -0.1895449614
N  N4  1  0.75430000  0.62500000  0.53270000  1.0 -0.1820481711
N  N5  1  0.88040000  0.19670000  0.81280000  1.0 -0.214010546
N  N6  1  0.70120000  0.20240000  0.16580000  1.0 -0.2251114044
N  N7  1  0.27240000  0.12600000  0.01470000  1.0 -0.1895449614
N  N8  1  0.24570000  0.12500000  0.96730000  1.0 -0.1820481711
N  N9  1  0.88040000  0.30330000  0.31280000  1.0 -0.214010546
N  N10  1  0.70120000  0.29760000  0.66580000  1.0 -0.2251114044
N  N11  1  0.27240000  0.37400000  0.51470000  1.0 -0.1895449614
N  N12  1  0.24570000  0.37500000  0.46730000  1.0 -0.1820481711
N  N13  1  0.11960000  0.80330000  0.18720000  1.0 -0.214010546
N  N14  1  0.29880000  0.79760000  0.83420000  1.0 -0.2251114044
N  N15  1  0.72760000  0.87400000  0.98530000  1.0 -0.1895449614
N  N16  1  0.75430000  0.87500000  0.03270000  1.0 -0.1820481711
O  O1  1  0.37040000  0.56090000  0.24070000  1.0 -0.6802087668
O  O2  1  0.44250000  0.33820000  0.24090000  1.0 -0.6919115129
O  O3  1  0.34150000  0.44910000  0.17240000  1.0 -0.6741905454
O  O4  1  0.04990000  0.41520000  0.22270000  1.0 -0.7027988377
O  O5  1  0.62960000  0.06090000  0.25930000  1.0 -0.6802087668
O  O6  1  0.55750000  0.83820000  0.25910000  1.0 -0.6919115129
O  O7  1  0.65850000  0.94910000  0.32760000  1.0 -0.6741905454
O  O8  1  0.95010000  0.91520000  0.27730000  1.0 -0.7027988377
O  O9  1  0.62960000  0.43910000  0.75930000  1.0 -0.6802087668
O  O10  1  0.55750000  0.66180000  0.75910000  1.0 -0.6919115129
O  O11  1  0.65850000  0.55090000  0.82760000  1.0 -0.6741905454
O  O12  1  0.95010000  0.58480000  0.77730000  1.0 -0.7027988377
O  O13  1  0.37040000  0.93910000  0.74070000  1.0 -0.6802087668
O  O14  1  0.44250000  0.16180000  0.74090000  1.0 -0.6919115129
O  O15  1  0.34150000  0.05090000  0.67240000  1.0 -0.6741905454
O  O16  1  0.04990000  0.08480000  0.72270000  1.0 -0.7027988377
