# DDEC6 charges by PACMAN v1.1 (https://github.com/mtap-research/PACMAN-charge/)
data_YUNHOH_FSR_pacman
_chemical_formula_sum              "N52 C156 H96 Cu8"
_cell_length_a       21.899
_cell_length_b       19.268
_cell_length_c       8.882
_cell_angle_alpha    90
_cell_angle_beta     90
_cell_angle_gamma    90

_symmetry_space_group_name_H-M    "P 1"
_symmetry_Int_Tables_number       1

loop_
  _symmetry_equiv_pos_as_xyz
  'x, y, z'

loop_
  _atom_site_type_symbol
  _atom_site_label
  _atom_site_symmetry_multiplicity
  _atom_site_fract_x
  _atom_site_fract_y
  _atom_site_fract_z
  _atom_site_occupancy
 _atom_site_charge
N   N1        1.0  0.00070  0.34815  0.94280  1.0000 -0.3737763382
C   C1        1.0  0.99859  0.31997  0.05890  1.0000 -0.3352821536
N   N2        1.0  0.07423  0.46658  0.75580  1.0000 -0.1736720123
C   C2        1.0  0.06994  0.53033  0.69760  1.0000 0.0199433417
H   H1        1.0  0.03689  0.54107  0.63418  1.0000 0.1103373871
N   N3        1.0  0.16179  0.56866  0.81370  1.0000 -0.229151006
C   C3        1.0  0.11302  0.58094  0.72840  1.0000 0.0432355653
H   H2        1.0  0.10765  0.62554  0.68763  1.0000 0.1103373871
N   N4        1.0  0.23646  0.42340  0.98630  1.0000 -0.3149152763
C   C4        1.0  0.16779  0.50395  0.86740  1.0000 0.1270924933
N   N5        1.0  0.35566  0.32137  0.15560  1.0000 -0.2445885196
C   C5        1.0  0.12373  0.45360  0.83970  1.0000 -0.0089057363
H   H3        1.0  0.12884  0.40909  0.88117  1.0000 0.1103373871
N   N6        1.0  0.28562  0.21710  0.02630  1.0000 -0.2002560489
C   C6        1.0  0.22304  0.48971  0.95890  1.0000 0.1815808683
N   N7        1.0  0.43011  0.69818  0.21890  1.0000 -0.1938679062
C   C7        1.0  0.25870  0.54512  0.00860  1.0000 -0.2206805118
H   H4        1.0  0.24784  0.59108  0.98528  1.0000 0.1270924933
C   C8        1.0  0.31066  0.53107  0.09350  1.0000 0.1103373871
C   C9        1.0  0.35144  0.58917  0.14040  1.0000 0.1103373871
C   C10       1.0  0.35677  0.64779  0.05210  1.0000 -0.1800096065
H   H5        1.0  0.33347  0.65197  0.96370  1.0000 0.1270924933
C   C11       1.0  0.39625  0.70030  0.09340  1.0000 0.067892798
H   H6        1.0  0.39953  0.73935  0.03051  1.0000 0.1036828875
C   C12       1.0  0.42439  0.64182  0.30370  1.0000 0.0804744445
H   H7        1.0  0.44748  0.63925  0.39277  1.0000 0.1036828875
C   C13       1.0  0.38643  0.58651  0.26890  1.0000 -0.2002560489
H   H8        1.0  0.38461  0.54757  0.33254  1.0000 0.1270924933
C   C14       1.0  0.32396  0.46256  0.12520  1.0000 -0.2206805118
H   H9        1.0  0.35809  0.45129  0.18451  1.0000 0.1270924933
C   C15       1.0  0.28645  0.41014  0.06860  1.0000 0.1855938964
C   C16       1.0  0.30346  0.33607  0.08480  1.0000 0.1218010522
C   C17       1.0  0.37190  0.25407  0.15880  1.0000 0.0126426972
H   H10       1.0  0.40818  0.24157  0.20844  1.0000 0.1218010522
C   C18       1.0  0.33816  0.20379  0.09350  1.0000 0.0312684689
H   H11       1.0  0.35249  0.15781  0.09600  1.0000 0.1103373871
C   C19       1.0  0.26874  0.28367  0.02360  1.0000 -0.0089057363
H   H12       1.0  0.23141  0.29527  0.97783  1.0000 0.1103373871
C   C20       1.0  0.99930  0.34815  0.55720  1.0000 -0.3737763382
C   C21       1.0  0.00141  0.31997  0.44110  1.0000 -0.1210378084
N   N8        1.0  0.92577  0.46658  0.74420  1.0000 -0.1736720123
C   C22       1.0  0.93006  0.53033  0.80240  1.0000 0.0199433417
H   H13       1.0  0.96311  0.54107  0.86582  1.0000 0.1218010522
N   N9        1.0  0.83821  0.56866  0.68630  1.0000 -0.229151006
C   C23       1.0  0.88698  0.58094  0.77160  1.0000 0.0432355653
H   H14       1.0  0.89235  0.62554  0.81236  1.0000 0.1103373871
N   N10       1.0  0.76354  0.42340  0.51370  1.0000 -0.3161685832
C   C24       1.0  0.83221  0.50395  0.63260  1.0000 0.1270924933
N   N11       1.0  0.64434  0.32137  0.34440  1.0000 -0.245966173
C   C25       1.0  0.87627  0.45360  0.66030  1.0000 -0.0089057363
H   H15       1.0  0.87116  0.40909  0.61883  1.0000 0.1103373871
N   N12       1.0  0.71438  0.21710  0.47370  1.0000 -0.2002560489
C   C26       1.0  0.77696  0.48971  0.54110  1.0000 0.1815808683
N   N13       1.0  0.56989  0.69818  0.28110  1.0000 -0.1938679062
C   C27       1.0  0.74130  0.54512  0.49140  1.0000 -0.2206805118
H   H16       1.0  0.75216  0.59108  0.51472  1.0000 0.1270924933
C   C28       1.0  0.68934  0.53107  0.40650  1.0000 0.1103373871
C   C29       1.0  0.64856  0.58917  0.35960  1.0000 0.1036828875
C   C30       1.0  0.64323  0.64779  0.44790  1.0000 -0.1800096065
H   H17       1.0  0.66653  0.65197  0.53630  1.0000 0.1218010522
C   C31       1.0  0.60375  0.70030  0.40660  1.0000 0.0804744445
H   H18       1.0  0.60047  0.73935  0.46949  1.0000 0.1103373871
C   C32       1.0  0.57561  0.64182  0.19630  1.0000 0.0804744445
H   H19       1.0  0.55252  0.63925  0.10723  1.0000 0.1036828875
C   C33       1.0  0.61357  0.58651  0.23110  1.0000 -0.2002560489
H   H20       1.0  0.61539  0.54757  0.16746  1.0000 0.1270924933
C   C34       1.0  0.67604  0.46256  0.37480  1.0000 -0.2206805118
H   H21       1.0  0.64191  0.45129  0.31549  1.0000 0.1270924933
C   C35       1.0  0.71355  0.41014  0.43140  1.0000 0.1855938964
C   C36       1.0  0.69654  0.33607  0.41520  1.0000 0.1218010522
C   C37       1.0  0.62810  0.25407  0.34120  1.0000 0.0199433417
H   H22       1.0  0.59182  0.24157  0.29156  1.0000 0.1270924933
C   C38       1.0  0.66184  0.20379  0.40650  1.0000 0.0312684689
H   H23       1.0  0.64751  0.15781  0.40400  1.0000 0.1103373871
C   C39       1.0  0.73126  0.28367  0.47640  1.0000 -0.0089057363
H   H24       1.0  0.76859  0.29527  0.52217  1.0000 0.1103373871
N   N14       1.0  0.50070  0.84815  0.55720  1.0000 -0.3737763382
C   C40       1.0  0.49859  0.81997  0.44110  1.0000 -0.3352821536
N   N15       1.0  0.57423  0.96658  0.74420  1.0000 -0.1736720123
C   C41       1.0  0.56994  0.03033  0.80240  1.0000 0.0199433417
H   H25       1.0  0.53689  0.04107  0.86582  1.0000 0.1103373871
N   N16       1.0  0.66179  0.06866  0.68630  1.0000 -0.229151006
C   C42       1.0  0.61302  0.08094  0.77160  1.0000 0.0432355653
H   H26       1.0  0.60765  0.12554  0.81236  1.0000 0.1103373871
N   N17       1.0  0.73646  0.92340  0.51370  1.0000 -0.3149152763
C   C43       1.0  0.66779  0.00395  0.63260  1.0000 0.1270924933
N   N18       1.0  0.85566  0.82137  0.34440  1.0000 -0.2445885196
C   C44       1.0  0.62373  0.95360  0.66030  1.0000 -0.0089057363
H   H27       1.0  0.62884  0.90909  0.61883  1.0000 0.1103373871
N   N19       1.0  0.78562  0.71710  0.47370  1.0000 -0.2002560489
C   C45       1.0  0.72304  0.98971  0.54110  1.0000 0.1815808683
N   N20       1.0  0.93011  0.19818  0.28110  1.0000 -0.1938679062
C   C46       1.0  0.75870  0.04512  0.49140  1.0000 -0.2206805118
H   H28       1.0  0.74784  0.09108  0.51472  1.0000 0.1270924933
C   C47       1.0  0.81066  0.03107  0.40650  1.0000 0.1103373871
C   C48       1.0  0.85144  0.08917  0.35960  1.0000 0.1103373871
C   C49       1.0  0.85677  0.14779  0.44790  1.0000 -0.1800096065
H   H29       1.0  0.83347  0.15197  0.53630  1.0000 0.1270924933
C   C50       1.0  0.89625  0.20030  0.40660  1.0000 0.067892798
H   H30       1.0  0.89953  0.23935  0.46949  1.0000 0.1036828875
C   C51       1.0  0.92439  0.14182  0.19630  1.0000 0.0804744445
H   H31       1.0  0.94748  0.13925  0.10723  1.0000 0.1036828875
C   C52       1.0  0.88643  0.08651  0.23110  1.0000 -0.2002560489
H   H32       1.0  0.88461  0.04757  0.16746  1.0000 0.1270924933
C   C53       1.0  0.82396  0.96256  0.37480  1.0000 -0.2206805118
H   H33       1.0  0.85809  0.95129  0.31549  1.0000 0.1270924933
C   C54       1.0  0.78645  0.91014  0.43140  1.0000 0.1855938964
C   C55       1.0  0.80346  0.83607  0.41520  1.0000 0.1218010522
C   C56       1.0  0.87190  0.75407  0.34120  1.0000 0.0126426972
H   H34       1.0  0.90818  0.74157  0.29156  1.0000 0.1218010522
C   C57       1.0  0.83816  0.70379  0.40650  1.0000 0.0312684689
H   H35       1.0  0.85249  0.65781  0.40400  1.0000 0.1103373871
C   C58       1.0  0.76874  0.78367  0.47640  1.0000 -0.0089057363
H   H36       1.0  0.73141  0.79527  0.52217  1.0000 0.1103373871
C   C59       1.0  0.49930  0.84815  0.94280  1.0000 -0.3737763382
C   C60       1.0  0.50141  0.81997  0.05890  1.0000 -0.1210378084
N   N21       1.0  0.42577  0.96658  0.75580  1.0000 -0.1736720123
C   C61       1.0  0.43006  0.03033  0.69760  1.0000 0.0199433417
H   H37       1.0  0.46311  0.04107  0.63418  1.0000 0.1218010522
N   N22       1.0  0.33821  0.06866  0.81370  1.0000 -0.229151006
C   C62       1.0  0.38698  0.08094  0.72840  1.0000 0.0432355653
H   H38       1.0  0.39235  0.12554  0.68763  1.0000 0.1103373871
N   N23       1.0  0.26354  0.92340  0.98630  1.0000 -0.3161685832
C   C63       1.0  0.33221  0.00395  0.86740  1.0000 0.1270924933
N   N24       1.0  0.14434  0.82137  0.15560  1.0000 -0.245966173
C   C64       1.0  0.37627  0.95360  0.83970  1.0000 -0.0089057363
H   H39       1.0  0.37116  0.90909  0.88117  1.0000 0.1103373871
N   N25       1.0  0.21438  0.71710  0.02630  1.0000 -0.2002560489
C   C65       1.0  0.27696  0.98971  0.95890  1.0000 0.1815808683
N   N26       1.0  0.06989  0.19818  0.21890  1.0000 -0.1938679062
C   C66       1.0  0.24130  0.04512  0.00860  1.0000 -0.2206805118
H   H40       1.0  0.25216  0.09108  0.98528  1.0000 0.1270924933
C   C67       1.0  0.18934  0.03107  0.09350  1.0000 0.1103373871
C   C68       1.0  0.14856  0.08917  0.14040  1.0000 0.1036828875
C   C69       1.0  0.14323  0.14779  0.05210  1.0000 -0.1800096065
H   H41       1.0  0.16653  0.15197  0.96370  1.0000 0.1218010522
C   C70       1.0  0.10375  0.20030  0.09340  1.0000 0.0804744445
H   H42       1.0  0.10047  0.23935  0.03051  1.0000 0.1103373871
C   C71       1.0  0.07561  0.14182  0.30370  1.0000 0.0804744445
H   H43       1.0  0.05252  0.13925  0.39277  1.0000 0.1036828875
C   C72       1.0  0.11357  0.08651  0.26890  1.0000 -0.2002560489
H   H44       1.0  0.11539  0.04757  0.33254  1.0000 0.1270924933
C   C73       1.0  0.17604  0.96256  0.12520  1.0000 -0.2206805118
H   H45       1.0  0.14191  0.95129  0.18451  1.0000 0.1270924933
C   C74       1.0  0.21355  0.91014  0.06860  1.0000 0.1855938964
C   C75       1.0  0.19654  0.83607  0.08480  1.0000 0.1218010522
C   C76       1.0  0.12810  0.75407  0.15880  1.0000 0.0199433417
H   H46       1.0  0.09182  0.74157  0.20844  1.0000 0.1270924933
C   C77       1.0  0.16184  0.70379  0.09350  1.0000 0.0312684689
H   H47       1.0  0.14751  0.65781  0.09600  1.0000 0.1103373871
C   C78       1.0  0.23126  0.78367  0.02360  1.0000 -0.0089057363
H   H48       1.0  0.26859  0.79527  0.97783  1.0000 0.1103373871
Cu  Cu1       1.0  0.00000  0.39270  0.75000  1.0000 0.3489123069
Cu  Cu2       1.0  0.50000  0.89270  0.75000  1.0000 0.3489123069
Cu  Cu3       1.0  0.00000  0.27378  0.25000  1.0000 0.2553674213
Cu  Cu4       1.0  0.50000  0.77378  0.25000  1.0000 0.2548603944
N   N27       1.0  0.49930  0.15185  0.44280  1.0000 -0.3737763382
C   C79       1.0  0.50141  0.18003  0.55890  1.0000 -0.3345311351
N   N28       1.0  0.42577  0.03342  0.25580  1.0000 -0.1736720123
C   C80       1.0  0.43006  0.96967  0.19760  1.0000 0.0199433417
H   H49       1.0  0.46311  0.95893  0.13418  1.0000 0.1103373871
N   N29       1.0  0.33821  0.93134  0.31370  1.0000 -0.229151006
C   C81       1.0  0.38698  0.91906  0.22840  1.0000 0.0432355653
H   H50       1.0  0.39235  0.87446  0.18763  1.0000 0.1103373871
N   N30       1.0  0.26354  0.07660  0.48630  1.0000 -0.3149152763
C   C82       1.0  0.33221  0.99605  0.36740  1.0000 0.1270924933
N   N31       1.0  0.14434  0.17863  0.65560  1.0000 -0.2445885196
C   C83       1.0  0.37627  0.04640  0.33970  1.0000 -0.0089057363
H   H51       1.0  0.37116  0.09091  0.38117  1.0000 0.1103373871
N   N32       1.0  0.21438  0.28290  0.52630  1.0000 -0.2002560489
C   C84       1.0  0.27696  0.01029  0.45890  1.0000 0.1815808683
N   N33       1.0  0.06989  0.80182  0.71890  1.0000 -0.1938679062
C   C85       1.0  0.24130  0.95488  0.50860  1.0000 -0.2206805118
H   H52       1.0  0.25216  0.90892  0.48528  1.0000 0.1270924933
C   C86       1.0  0.18934  0.96893  0.59350  1.0000 0.1103373871
C   C87       1.0  0.14856  0.91083  0.64040  1.0000 0.1103373871
C   C88       1.0  0.14323  0.85221  0.55210  1.0000 -0.1800096065
H   H53       1.0  0.16653  0.84803  0.46370  1.0000 0.1270924933
C   C89       1.0  0.10375  0.79970  0.59340  1.0000 0.067892798
H   H54       1.0  0.10047  0.76065  0.53051  1.0000 0.1036828875
C   C90       1.0  0.07561  0.85818  0.80370  1.0000 0.0804744445
H   H55       1.0  0.05252  0.86075  0.89277  1.0000 0.1036828875
C   C91       1.0  0.11357  0.91349  0.76890  1.0000 -0.2002560489
H   H56       1.0  0.11539  0.95243  0.83254  1.0000 0.1270924933
C   C92       1.0  0.17604  0.03744  0.62520  1.0000 -0.2206805118
H   H57       1.0  0.14191  0.04871  0.68451  1.0000 0.1270924933
C   C93       1.0  0.21355  0.08986  0.56860  1.0000 0.1855938964
C   C94       1.0  0.19654  0.16393  0.58480  1.0000 0.1218010522
C   C95       1.0  0.12810  0.24593  0.65880  1.0000 0.0126426972
H   H58       1.0  0.09182  0.25843  0.70844  1.0000 0.1218010522
C   C96       1.0  0.16184  0.29621  0.59350  1.0000 0.0312684689
H   H59       1.0  0.14751  0.34219  0.59600  1.0000 0.1103373871
C   C97       1.0  0.23126  0.21633  0.52360  1.0000 -0.0089057363
H   H60       1.0  0.26859  0.20473  0.47783  1.0000 0.1103373871
C   C98       1.0  0.50070  0.15185  0.05720  1.0000 -0.3737763382
C   C99       1.0  0.49859  0.18003  0.94110  1.0000 -0.1210378084
N   N34       1.0  0.57423  0.03342  0.24420  1.0000 -0.1736720123
C   C100      1.0  0.56994  0.96967  0.30240  1.0000 0.0199433417
H   H61       1.0  0.53689  0.95893  0.36582  1.0000 0.1218010522
N   N35       1.0  0.66179  0.93134  0.18630  1.0000 -0.229151006
C   C101      1.0  0.61302  0.91906  0.27160  1.0000 0.0432355653
H   H62       1.0  0.60765  0.87446  0.31237  1.0000 0.1103373871
N   N36       1.0  0.73646  0.07660  0.01370  1.0000 -0.3161685832
C   C102      1.0  0.66779  0.99605  0.13260  1.0000 0.1270924933
N   N37       1.0  0.85566  0.17863  0.84440  1.0000 -0.245966173
C   C103      1.0  0.62373  0.04640  0.16030  1.0000 -0.0089057363
H   H63       1.0  0.62884  0.09091  0.11883  1.0000 0.1103373871
N   N38       1.0  0.78562  0.28290  0.97370  1.0000 -0.2002560489
C   C104      1.0  0.72304  0.01029  0.04110  1.0000 0.1815808683
N   N39       1.0  0.93011  0.80182  0.78110  1.0000 -0.1938679062
C   C105      1.0  0.75870  0.95488  0.99140  1.0000 -0.2206805118
H   H64       1.0  0.74784  0.90892  0.01472  1.0000 0.1270924933
C   C106      1.0  0.81066  0.96893  0.90650  1.0000 0.1103373871
C   C107      1.0  0.85144  0.91083  0.85960  1.0000 0.1036828875
C   C108      1.0  0.85677  0.85221  0.94790  1.0000 -0.1800096065
H   H65       1.0  0.83347  0.84803  0.03630  1.0000 0.1218010522
C   C109      1.0  0.89625  0.79970  0.90660  1.0000 0.0804744445
H   H66       1.0  0.89953  0.76065  0.96949  1.0000 0.1103373871
C   C110      1.0  0.92439  0.85818  0.69630  1.0000 0.0804744445
H   H67       1.0  0.94748  0.86075  0.60723  1.0000 0.1036828875
C   C111      1.0  0.88643  0.91349  0.73110  1.0000 -0.2002560489
H   H68       1.0  0.88461  0.95243  0.66746  1.0000 0.1270924933
C   C112      1.0  0.82396  0.03744  0.87480  1.0000 -0.2206805118
H   H69       1.0  0.85809  0.04871  0.81549  1.0000 0.1270924933
C   C113      1.0  0.78645  0.08986  0.93140  1.0000 0.1855938964
C   C114      1.0  0.80346  0.16393  0.91520  1.0000 0.1218010522
C   C115      1.0  0.87190  0.24593  0.84120  1.0000 0.0199433417
H   H70       1.0  0.90818  0.25843  0.79156  1.0000 0.1270924933
C   C116      1.0  0.83816  0.29621  0.90650  1.0000 0.0312684689
H   H71       1.0  0.85249  0.34219  0.90400  1.0000 0.1103373871
C   C117      1.0  0.76874  0.21633  0.97640  1.0000 -0.0089057363
H   H72       1.0  0.73141  0.20473  0.02217  1.0000 0.1103373871
N   N40       1.0  0.99930  0.65185  0.05720  1.0000 -0.3737763382
C   C118      1.0  0.00141  0.68003  0.94110  1.0000 -0.3352821536
N   N41       1.0  0.92577  0.53342  0.24420  1.0000 -0.1736720123
C   C119      1.0  0.93006  0.46967  0.30240  1.0000 0.0199433417
H   H73       1.0  0.96311  0.45893  0.36582  1.0000 0.1103373871
N   N42       1.0  0.83821  0.43134  0.18630  1.0000 -0.229151006
C   C120      1.0  0.88698  0.41906  0.27160  1.0000 0.0432355653
H   H74       1.0  0.89235  0.37446  0.31237  1.0000 0.1103373871
N   N43       1.0  0.76354  0.57660  0.01370  1.0000 -0.3149152763
C   C121      1.0  0.83221  0.49605  0.13260  1.0000 0.1270924933
N   N44       1.0  0.64434  0.67863  0.84440  1.0000 -0.2445885196
C   C122      1.0  0.87627  0.54640  0.16030  1.0000 -0.0089057363
H   H75       1.0  0.87116  0.59091  0.11883  1.0000 0.1103373871
N   N45       1.0  0.71438  0.78290  0.97370  1.0000 -0.2002560489
C   C123      1.0  0.77696  0.51029  0.04110  1.0000 0.1815808683
N   N46       1.0  0.56989  0.30182  0.78110  1.0000 -0.1938679062
C   C124      1.0  0.74130  0.45488  0.99140  1.0000 -0.2206805118
H   H76       1.0  0.75216  0.40892  0.01472  1.0000 0.1270924933
C   C125      1.0  0.68934  0.46893  0.90650  1.0000 0.1103373871
C   C126      1.0  0.64856  0.41083  0.85960  1.0000 0.1103373871
C   C127      1.0  0.64323  0.35221  0.94790  1.0000 -0.1800096065
H   H77       1.0  0.66653  0.34803  0.03630  1.0000 0.1270924933
C   C128      1.0  0.60375  0.29970  0.90660  1.0000 0.067892798
H   H78       1.0  0.60047  0.26065  0.96949  1.0000 0.1036828875
C   C129      1.0  0.57561  0.35818  0.69630  1.0000 0.0804744445
H   H79       1.0  0.55252  0.36075  0.60723  1.0000 0.1036828875
C   C130      1.0  0.61357  0.41349  0.73110  1.0000 -0.2002560489
H   H80       1.0  0.61539  0.45243  0.66746  1.0000 0.1270924933
C   C131      1.0  0.67604  0.53744  0.87480  1.0000 -0.2206805118
H   H81       1.0  0.64191  0.54871  0.81549  1.0000 0.1270924933
C   C132      1.0  0.71355  0.58986  0.93140  1.0000 0.1855938964
C   C133      1.0  0.69654  0.66393  0.91520  1.0000 0.1218010522
C   C134      1.0  0.62810  0.74593  0.84120  1.0000 0.0126426972
H   H82       1.0  0.59182  0.75843  0.79156  1.0000 0.1218010522
C   C135      1.0  0.66184  0.79621  0.90650  1.0000 0.0312684689
H   H83       1.0  0.64751  0.84219  0.90400  1.0000 0.1103373871
C   C136      1.0  0.73126  0.71633  0.97640  1.0000 -0.0089057363
H   H84       1.0  0.76859  0.70473  0.02217  1.0000 0.1103373871
C   C137      1.0  0.00070  0.65185  0.44280  1.0000 -0.3737763382
C   C138      1.0  0.99859  0.68003  0.55890  1.0000 -0.1210378084
N   N47       1.0  0.07423  0.53342  0.25580  1.0000 -0.1736720123
C   C139      1.0  0.06994  0.46967  0.19760  1.0000 0.0199433417
H   H85       1.0  0.03689  0.45893  0.13418  1.0000 0.1218010522
N   N48       1.0  0.16179  0.43134  0.31370  1.0000 -0.229151006
C   C140      1.0  0.11302  0.41906  0.22840  1.0000 0.0432355653
H   H86       1.0  0.10765  0.37446  0.18763  1.0000 0.1103373871
N   N49       1.0  0.23646  0.57660  0.48630  1.0000 -0.3161685832
C   C141      1.0  0.16779  0.49605  0.36740  1.0000 0.1270924933
N   N50       1.0  0.35566  0.67863  0.65560  1.0000 -0.245966173
C   C142      1.0  0.12373  0.54640  0.33970  1.0000 -0.0089057363
H   H87       1.0  0.12884  0.59091  0.38117  1.0000 0.1103373871
N   N51       1.0  0.28562  0.78290  0.52630  1.0000 -0.2002560489
C   C143      1.0  0.22304  0.51029  0.45890  1.0000 0.1815808683
N   N52       1.0  0.43011  0.30182  0.71890  1.0000 -0.1938679062
C   C144      1.0  0.25870  0.45488  0.50860  1.0000 -0.2206805118
H   H88       1.0  0.24784  0.40892  0.48528  1.0000 0.1270924933
C   C145      1.0  0.31066  0.46893  0.59350  1.0000 0.1103373871
C   C146      1.0  0.35144  0.41083  0.64040  1.0000 0.1036828875
C   C147      1.0  0.35677  0.35221  0.55210  1.0000 -0.1800096065
H   H89       1.0  0.33347  0.34803  0.46370  1.0000 0.1218010522
C   C148      1.0  0.39625  0.29970  0.59340  1.0000 0.0804744445
H   H90       1.0  0.39953  0.26065  0.53051  1.0000 0.1103373871
C   C149      1.0  0.42439  0.35818  0.80370  1.0000 0.0804744445
H   H91       1.0  0.44748  0.36075  0.89277  1.0000 0.1036828875
C   C150      1.0  0.38643  0.41349  0.76890  1.0000 -0.2002560489
H   H92       1.0  0.38461  0.45243  0.83254  1.0000 0.1270924933
C   C151      1.0  0.32396  0.53744  0.62520  1.0000 -0.2206805118
H   H93       1.0  0.35809  0.54871  0.68451  1.0000 0.1270924933
C   C152      1.0  0.28645  0.58986  0.56860  1.0000 0.1855938964
C   C153      1.0  0.30346  0.66393  0.58480  1.0000 0.1218010522
C   C154      1.0  0.37190  0.74593  0.65880  1.0000 0.0199433417
H   H94       1.0  0.40818  0.75843  0.70844  1.0000 0.1270924933
C   C155      1.0  0.33816  0.79621  0.59350  1.0000 0.0312684689
H   H95       1.0  0.35249  0.84219  0.59600  1.0000 0.1103373871
C   C156      1.0  0.26874  0.71633  0.52360  1.0000 -0.0089057363
H   H96       1.0  0.23141  0.70473  0.47783  1.0000 0.1103373871
Cu  Cu5       1.0  0.50000  0.10730  0.25000  1.0000 0.3489123069
Cu  Cu6       1.0  0.00000  0.60730  0.25000  1.0000 0.3489123069
Cu  Cu7       1.0  0.50000  0.22622  0.75000  1.0000 0.2548603944
Cu  Cu8       1.0  0.00000  0.72622  0.75000  1.0000 0.2548603944
  C   C157      1.0  0.00070  0.34815  0.94280  1.0000
  N   N53       1.0  0.99930  0.34815  0.55720  1.0000
  C   C158      1.0  0.50070  0.84815  0.55720  1.0000
  N   N54       1.0  0.49930  0.84815  0.94280  1.0000
  C   C159      1.0  0.49930  0.15185  0.44280  1.0000
  N   N55       1.0  0.50070  0.15185  0.05720  1.0000
  C   C160      1.0  0.99930  0.65185  0.05720  1.0000
  N   N56       1.0  0.00070  0.65185  0.44280  1.0000
