# DDEC6 charges by PACMAN v1.1 (https://github.com/mtap-research/PACMAN-charge/)
data_YUNHIB_ASR_pacman
_chemical_formula_sum              "C156 N52 H96 Cu8"
_cell_length_a       21.887
_cell_length_b       19.269
_cell_length_c       8.87
_cell_angle_alpha    90
_cell_angle_beta     90
_cell_angle_gamma    90

_symmetry_space_group_name_H-M    "P 1"
_symmetry_Int_Tables_number       1

loop_
  _symmetry_equiv_pos_as_xyz
  'x, y, z'

loop_
  _atom_site_type_symbol
  _atom_site_label
  _atom_site_symmetry_multiplicity
  _atom_site_fract_x
  _atom_site_fract_y
  _atom_site_fract_z
  _atom_site_occupancy
 _atom_site_charge
C   C1        1.0  0.00079  0.34807  0.94280  1.0000 -0.3706332638
N   N1        1.0  0.07415  0.46665  0.75574  1.0000 -0.1734541326
N   N2        1.0  0.16181  0.56852  0.81360  1.0000 -0.2325838252
N   N3        1.0  0.23642  0.42304  0.98610  1.0000 -0.3159018352
N   N4        1.0  0.35553  0.32097  0.15580  1.0000 -0.2458977818
N   N5        1.0  0.28545  0.21697  0.02630  1.0000 -0.1992846604
N   N6        1.0  0.43004  0.69763  0.21930  1.0000 -0.1931808486
C   C2        1.0  0.99863  0.31966  0.05830  1.0000 -0.1214010983
C   C3        1.0  0.06997  0.53034  0.69730  1.0000 0.0194928837
H   H1        1.0  0.03702  0.54105  0.63344  1.0000 0.1222386344
C   C4        1.0  0.11291  0.58084  0.72850  1.0000 0.0430722733
H   H2        1.0  0.10742  0.62552  0.68818  1.0000 0.1093886196
C   C5        1.0  0.16775  0.50381  0.86730  1.0000 0.1273155773
C   C6        1.0  0.12372  0.45349  0.83970  1.0000 -0.0081615486
H   H3        1.0  0.12883  0.40895  0.88109  1.0000 0.1093886196
C   C7        1.0  0.22300  0.48959  0.95880  1.0000 0.1798004315
C   C8        1.0  0.25881  0.54464  0.00900  1.0000 -0.2141628682
H   H4        1.0  0.24799  0.59061  0.98561  1.0000 0.1273155773
C   C9        1.0  0.31064  0.53085  0.09390  1.0000 0.1093886196
C   C10       1.0  0.35166  0.58848  0.14020  1.0000 0.1031350357
C   C11       1.0  0.35680  0.64721  0.05220  1.0000 -0.1804675057
H   H5        1.0  0.33337  0.65144  0.96384  1.0000 0.1222386344
C   C12       1.0  0.39628  0.69983  0.09350  1.0000 0.0796543359
H   H6        1.0  0.39959  0.73888  0.03047  1.0000 0.1093886196
C   C13       1.0  0.42446  0.64150  0.30470  1.0000 0.0796543359
H   H7        1.0  0.44736  0.63917  0.39419  1.0000 0.1031350357
C   C14       1.0  0.38671  0.58600  0.26930  1.0000 -0.1992846604
H   H8        1.0  0.38504  0.54700  0.33280  1.0000 0.1273155773
C   C15       1.0  0.32401  0.46204  0.12530  1.0000 -0.2235556289
H   H9        1.0  0.35814  0.45067  0.18469  1.0000 0.1273155773
C   C16       1.0  0.28641  0.40972  0.06810  1.0000 0.1870387004
C   C17       1.0  0.30346  0.33564  0.08490  1.0000 0.1222386344
C   C18       1.0  0.37188  0.25378  0.15890  1.0000 0.0194928837
H   H10       1.0  0.40829  0.24136  0.20826  1.0000 0.1273155773
C   C19       1.0  0.33807  0.20352  0.09410  1.0000 0.0282272438
H   H11       1.0  0.35226  0.15749  0.09709  1.0000 0.1093886196
C   C20       1.0  0.26879  0.28335  0.02330  1.0000 -0.0081615486
H   H12       1.0  0.23158  0.29504  0.97687  1.0000 0.1093886196
N   N7        1.0  0.99921  0.34807  0.55720  1.0000 -0.3706332638
N   N8        1.0  0.92585  0.46665  0.74426  1.0000 -0.1734541326
N   N9        1.0  0.83819  0.56852  0.68640  1.0000 -0.2325838252
N   N10       1.0  0.76358  0.42304  0.51390  1.0000 -0.3159018352
N   N11       1.0  0.64447  0.32097  0.34420  1.0000 -0.2445756092
N   N12       1.0  0.71455  0.21697  0.47370  1.0000 -0.1992846604
N   N13       1.0  0.56996  0.69763  0.28070  1.0000 -0.1931808486
C   C21       1.0  0.00137  0.31966  0.44170  1.0000 -0.3351464465
C   C22       1.0  0.93003  0.53034  0.80270  1.0000 0.0194928837
H   H13       1.0  0.96298  0.54105  0.86656  1.0000 0.1093886196
C   C23       1.0  0.88709  0.58084  0.77150  1.0000 0.0430722733
H   H14       1.0  0.89258  0.62552  0.81182  1.0000 0.1093886196
C   C24       1.0  0.83225  0.50381  0.63270  1.0000 0.1273155773
C   C25       1.0  0.87628  0.45349  0.66030  1.0000 -0.0081615486
H   H15       1.0  0.87117  0.40895  0.61891  1.0000 0.1093886196
C   C26       1.0  0.77700  0.48959  0.54120  1.0000 0.1798004315
C   C27       1.0  0.74119  0.54464  0.49100  1.0000 -0.2141628682
H   H16       1.0  0.75201  0.59061  0.51439  1.0000 0.1273155773
C   C28       1.0  0.68936  0.53085  0.40610  1.0000 0.1093886196
C   C29       1.0  0.64834  0.58848  0.35980  1.0000 0.1031350357
C   C30       1.0  0.64320  0.64721  0.44780  1.0000 -0.1804675057
H   H17       1.0  0.66663  0.65144  0.53616  1.0000 0.1222386344
C   C31       1.0  0.60372  0.69983  0.40650  1.0000 0.0662303486
H   H18       1.0  0.60041  0.73888  0.46953  1.0000 0.1031350357
C   C32       1.0  0.57554  0.64150  0.19530  1.0000 0.0796543359
H   H19       1.0  0.55264  0.63917  0.10581  1.0000 0.1093886196
C   C33       1.0  0.61329  0.58600  0.23070  1.0000 -0.1992846604
H   H20       1.0  0.61496  0.54700  0.16720  1.0000 0.1273155773
C   C34       1.0  0.67599  0.46204  0.37470  1.0000 -0.2235556289
H   H21       1.0  0.64186  0.45067  0.31531  1.0000 0.1273155773
C   C35       1.0  0.71359  0.40972  0.43190  1.0000 0.1870387004
C   C36       1.0  0.69654  0.33564  0.41510  1.0000 0.1222386344
C   C37       1.0  0.62812  0.25378  0.34110  1.0000 0.0141986751
H   H22       1.0  0.59171  0.24136  0.29174  1.0000 0.1222386344
C   C38       1.0  0.66193  0.20352  0.40590  1.0000 0.0282272438
H   H23       1.0  0.64774  0.15749  0.40291  1.0000 0.1093886196
C   C39       1.0  0.73121  0.28335  0.47670  1.0000 -0.0081615486
H   H24       1.0  0.76842  0.29504  0.52313  1.0000 0.1093886196
C   C40       1.0  0.50079  0.84807  0.55720  1.0000 -0.3706332638
N   N14       1.0  0.57415  0.96665  0.74426  1.0000 -0.1734541326
N   N15       1.0  0.66181  0.06852  0.68640  1.0000 -0.2325838252
N   N16       1.0  0.73642  0.92304  0.51390  1.0000 -0.3159018352
N   N17       1.0  0.85553  0.82097  0.34420  1.0000 -0.2458977818
N   N18       1.0  0.78545  0.71697  0.47370  1.0000 -0.1992846604
N   N19       1.0  0.93004  0.19763  0.28070  1.0000 -0.1931808486
C   C41       1.0  0.49863  0.81966  0.44170  1.0000 -0.1214010983
C   C42       1.0  0.56997  0.03034  0.80270  1.0000 0.0194928837
H   H25       1.0  0.53702  0.04105  0.86656  1.0000 0.1222386344
C   C43       1.0  0.61291  0.08084  0.77150  1.0000 0.0430722733
H   H26       1.0  0.60742  0.12552  0.81182  1.0000 0.1093886196
C   C44       1.0  0.66775  0.00381  0.63270  1.0000 0.1273155773
C   C45       1.0  0.62372  0.95349  0.66030  1.0000 -0.0081615486
H   H27       1.0  0.62883  0.90895  0.61891  1.0000 0.1093886196
C   C46       1.0  0.72300  0.98959  0.54120  1.0000 0.1798004315
C   C47       1.0  0.75881  0.04464  0.49100  1.0000 -0.2141628682
H   H28       1.0  0.74799  0.09061  0.51439  1.0000 0.1273155773
C   C48       1.0  0.81064  0.03085  0.40610  1.0000 0.1093886196
C   C49       1.0  0.85166  0.08848  0.35980  1.0000 0.1031350357
C   C50       1.0  0.85680  0.14721  0.44780  1.0000 -0.1804675057
H   H29       1.0  0.83337  0.15144  0.53616  1.0000 0.1222386344
C   C51       1.0  0.89628  0.19983  0.40650  1.0000 0.0796543359
H   H30       1.0  0.89959  0.23888  0.46953  1.0000 0.1093886196
C   C52       1.0  0.92446  0.14150  0.19530  1.0000 0.0796543359
H   H31       1.0  0.94736  0.13917  0.10581  1.0000 0.1031350357
C   C53       1.0  0.88671  0.08600  0.23070  1.0000 -0.1992846604
H   H32       1.0  0.88504  0.04700  0.16720  1.0000 0.1273155773
C   C54       1.0  0.82401  0.96204  0.37470  1.0000 -0.2235556289
H   H33       1.0  0.85814  0.95067  0.31531  1.0000 0.1273155773
C   C55       1.0  0.78641  0.90972  0.43190  1.0000 0.1870387004
C   C56       1.0  0.80346  0.83564  0.41510  1.0000 0.1222386344
C   C57       1.0  0.87188  0.75378  0.34110  1.0000 0.0194928837
H   H34       1.0  0.90829  0.74136  0.29174  1.0000 0.1273155773
C   C58       1.0  0.83807  0.70352  0.40590  1.0000 0.0282272438
H   H35       1.0  0.85226  0.65749  0.40291  1.0000 0.1093886196
C   C59       1.0  0.76879  0.78335  0.47670  1.0000 -0.0081615486
H   H36       1.0  0.73158  0.79504  0.52313  1.0000 0.1093886196
N   N20       1.0  0.49921  0.84807  0.94280  1.0000 -0.3706332638
N   N21       1.0  0.42585  0.96665  0.75574  1.0000 -0.1734541326
N   N22       1.0  0.33819  0.06852  0.81360  1.0000 -0.2325838252
N   N23       1.0  0.26358  0.92304  0.98610  1.0000 -0.3148434951
N   N24       1.0  0.14447  0.82097  0.15580  1.0000 -0.2445756092
N   N25       1.0  0.21455  0.71697  0.02630  1.0000 -0.1992846604
N   N26       1.0  0.06996  0.19763  0.21930  1.0000 -0.1931808486
C   C60       1.0  0.50137  0.81966  0.05830  1.0000 -0.3345529928
C   C61       1.0  0.43003  0.03034  0.69730  1.0000 0.0194928837
H   H37       1.0  0.46298  0.04105  0.63344  1.0000 0.1093886196
C   C62       1.0  0.38709  0.08084  0.72850  1.0000 0.0430722733
H   H38       1.0  0.39258  0.12552  0.68818  1.0000 0.1093886196
C   C63       1.0  0.33225  0.00381  0.86730  1.0000 0.1273155773
C   C64       1.0  0.37628  0.95349  0.83970  1.0000 -0.0081615486
H   H39       1.0  0.37117  0.90895  0.88109  1.0000 0.1093886196
C   C65       1.0  0.27700  0.98959  0.95880  1.0000 0.1798004315
C   C66       1.0  0.24119  0.04464  0.00900  1.0000 -0.2141628682
H   H40       1.0  0.25201  0.09061  0.98561  1.0000 0.1273155773
C   C67       1.0  0.18936  0.03085  0.09390  1.0000 0.1093886196
C   C68       1.0  0.14834  0.08848  0.14020  1.0000 0.1031350357
C   C69       1.0  0.14320  0.14721  0.05220  1.0000 -0.1804675057
H   H41       1.0  0.16663  0.15144  0.96384  1.0000 0.1222386344
C   C70       1.0  0.10372  0.19983  0.09350  1.0000 0.0662303486
H   H42       1.0  0.10041  0.23888  0.03047  1.0000 0.1031350357
C   C71       1.0  0.07554  0.14150  0.30470  1.0000 0.0796543359
H   H43       1.0  0.05264  0.13917  0.39419  1.0000 0.1093886196
C   C72       1.0  0.11329  0.08600  0.26930  1.0000 -0.1992846604
H   H44       1.0  0.11496  0.04700  0.33280  1.0000 0.1273155773
C   C73       1.0  0.17599  0.96204  0.12530  1.0000 -0.2235556289
H   H45       1.0  0.14186  0.95067  0.18469  1.0000 0.1273155773
C   C74       1.0  0.21359  0.90972  0.06810  1.0000 0.1870387004
C   C75       1.0  0.19654  0.83564  0.08490  1.0000 0.1222386344
C   C76       1.0  0.12812  0.75378  0.15890  1.0000 0.0141986751
H   H46       1.0  0.09171  0.74136  0.20826  1.0000 0.1222386344
C   C77       1.0  0.16193  0.70352  0.09410  1.0000 0.0282272438
H   H47       1.0  0.14774  0.65749  0.09709  1.0000 0.1093886196
C   C78       1.0  0.23121  0.78335  0.02330  1.0000 -0.0081615486
H   H48       1.0  0.26842  0.79504  0.97687  1.0000 0.1093886196
Cu  Cu1       1.0  0.00000  0.39279  0.75000  1.0000 0.3540614352
Cu  Cu2       1.0  0.50000  0.89279  0.75000  1.0000 0.3540614352
Cu  Cu3       1.0  0.00000  0.27340  0.25000  1.0000 0.2613255785
Cu  Cu4       1.0  0.50000  0.77340  0.25000  1.0000 0.2613255785
C   C79       1.0  0.49921  0.15193  0.44280  1.0000 -0.3706332638
N   N27       1.0  0.42585  0.03335  0.25574  1.0000 -0.1734541326
N   N28       1.0  0.33819  0.93148  0.31360  1.0000 -0.2325838252
N   N29       1.0  0.26358  0.07696  0.48610  1.0000 -0.3159018352
N   N30       1.0  0.14447  0.17903  0.65580  1.0000 -0.2458977818
N   N31       1.0  0.21455  0.28303  0.52630  1.0000 -0.1992846604
N   N32       1.0  0.06996  0.80237  0.71930  1.0000 -0.1931808486
C   C80       1.0  0.50137  0.18034  0.55830  1.0000 -0.1214010983
C   C81       1.0  0.43003  0.96966  0.19730  1.0000 0.0194928837
H   H49       1.0  0.46298  0.95895  0.13344  1.0000 0.1222386344
C   C82       1.0  0.38709  0.91916  0.22850  1.0000 0.0430722733
H   H50       1.0  0.39258  0.87448  0.18818  1.0000 0.1093886196
C   C83       1.0  0.33225  0.99619  0.36730  1.0000 0.1273155773
C   C84       1.0  0.37628  0.04651  0.33970  1.0000 -0.0081615486
H   H51       1.0  0.37117  0.09105  0.38109  1.0000 0.1093886196
C   C85       1.0  0.27700  0.01041  0.45880  1.0000 0.1798004315
C   C86       1.0  0.24119  0.95536  0.50900  1.0000 -0.2141628682
H   H52       1.0  0.25201  0.90939  0.48561  1.0000 0.1273155773
C   C87       1.0  0.18936  0.96915  0.59390  1.0000 0.1093886196
C   C88       1.0  0.14834  0.91152  0.64020  1.0000 0.1031350357
C   C89       1.0  0.14320  0.85279  0.55220  1.0000 -0.1804675057
H   H53       1.0  0.16663  0.84856  0.46384  1.0000 0.1222386344
C   C90       1.0  0.10372  0.80017  0.59350  1.0000 0.0796543359
H   H54       1.0  0.10041  0.76112  0.53047  1.0000 0.1093886196
C   C91       1.0  0.07554  0.85850  0.80470  1.0000 0.0796543359
H   H55       1.0  0.05264  0.86083  0.89419  1.0000 0.1031350357
C   C92       1.0  0.11329  0.91400  0.76930  1.0000 -0.1992846604
H   H56       1.0  0.11496  0.95300  0.83280  1.0000 0.1273155773
C   C93       1.0  0.17599  0.03796  0.62530  1.0000 -0.2235556289
H   H57       1.0  0.14186  0.04933  0.68469  1.0000 0.1273155773
C   C94       1.0  0.21359  0.09028  0.56810  1.0000 0.1870387004
C   C95       1.0  0.19654  0.16436  0.58490  1.0000 0.1222386344
C   C96       1.0  0.12812  0.24622  0.65890  1.0000 0.0194928837
H   H58       1.0  0.09171  0.25864  0.70826  1.0000 0.1273155773
C   C97       1.0  0.16193  0.29648  0.59410  1.0000 0.0282272438
H   H59       1.0  0.14774  0.34251  0.59709  1.0000 0.1093886196
C   C98       1.0  0.23121  0.21665  0.52330  1.0000 -0.0081615486
H   H60       1.0  0.26842  0.20496  0.47687  1.0000 0.1093886196
N   N33       1.0  0.50079  0.15193  0.05720  1.0000 -0.3706332638
N   N34       1.0  0.57415  0.03335  0.24426  1.0000 -0.1734541326
N   N35       1.0  0.66181  0.93148  0.18640  1.0000 -0.2325838252
N   N36       1.0  0.73642  0.07696  0.01390  1.0000 -0.3159018352
N   N37       1.0  0.85553  0.17903  0.84420  1.0000 -0.2445756092
N   N38       1.0  0.78545  0.28303  0.97370  1.0000 -0.1992846604
N   N39       1.0  0.93004  0.80237  0.78070  1.0000 -0.1931808486
C   C99       1.0  0.49863  0.18034  0.94170  1.0000 -0.3345529928
C   C100      1.0  0.56997  0.96966  0.30270  1.0000 0.0194928837
H   H61       1.0  0.53702  0.95895  0.36656  1.0000 0.1093886196
C   C101      1.0  0.61291  0.91916  0.27150  1.0000 0.0430722733
H   H62       1.0  0.60742  0.87448  0.31182  1.0000 0.1093886196
C   C102      1.0  0.66775  0.99619  0.13270  1.0000 0.1273155773
C   C103      1.0  0.62372  0.04651  0.16030  1.0000 -0.0081615486
H   H63       1.0  0.62883  0.09105  0.11891  1.0000 0.1093886196
C   C104      1.0  0.72300  0.01041  0.04120  1.0000 0.1798004315
C   C105      1.0  0.75881  0.95536  0.99100  1.0000 -0.2141628682
H   H64       1.0  0.74799  0.90939  0.01439  1.0000 0.1273155773
C   C106      1.0  0.81064  0.96915  0.90610  1.0000 0.1093886196
C   C107      1.0  0.85166  0.91152  0.85980  1.0000 0.1031350357
C   C108      1.0  0.85680  0.85279  0.94780  1.0000 -0.1804675057
H   H65       1.0  0.83337  0.84856  0.03616  1.0000 0.1222386344
C   C109      1.0  0.89628  0.80017  0.90650  1.0000 0.0662303486
H   H66       1.0  0.89959  0.76112  0.96953  1.0000 0.1031350357
C   C110      1.0  0.92446  0.85850  0.69530  1.0000 0.0796543359
H   H67       1.0  0.94736  0.86083  0.60581  1.0000 0.1093886196
C   C111      1.0  0.88671  0.91400  0.73070  1.0000 -0.1992846604
H   H68       1.0  0.88504  0.95300  0.66720  1.0000 0.1273155773
C   C112      1.0  0.82401  0.03796  0.87470  1.0000 -0.2235556289
H   H69       1.0  0.85814  0.04933  0.81531  1.0000 0.1273155773
C   C113      1.0  0.78641  0.09028  0.93190  1.0000 0.1870387004
C   C114      1.0  0.80346  0.16436  0.91510  1.0000 0.1222386344
C   C115      1.0  0.87188  0.24622  0.84110  1.0000 0.0141986751
H   H70       1.0  0.90829  0.25864  0.79174  1.0000 0.1222386344
C   C116      1.0  0.83807  0.29648  0.90590  1.0000 0.0282272438
H   H71       1.0  0.85226  0.34251  0.90291  1.0000 0.1093886196
C   C117      1.0  0.76879  0.21665  0.97670  1.0000 -0.0081615486
H   H72       1.0  0.73158  0.20496  0.02313  1.0000 0.1093886196
C   C118      1.0  0.99921  0.65193  0.05720  1.0000 -0.3706332638
N   N40       1.0  0.92585  0.53335  0.24426  1.0000 -0.1734541326
N   N41       1.0  0.83819  0.43148  0.18640  1.0000 -0.2325838252
N   N42       1.0  0.76358  0.57696  0.01390  1.0000 -0.3159018352
N   N43       1.0  0.64447  0.67903  0.84420  1.0000 -0.2458977818
N   N44       1.0  0.71455  0.78303  0.97370  1.0000 -0.1992846604
N   N45       1.0  0.56996  0.30237  0.78070  1.0000 -0.1931808486
C   C119      1.0  0.00137  0.68034  0.94170  1.0000 -0.1214010983
C   C120      1.0  0.93003  0.46966  0.30270  1.0000 0.0194928837
H   H73       1.0  0.96298  0.45895  0.36656  1.0000 0.1222386344
C   C121      1.0  0.88709  0.41916  0.27150  1.0000 0.0430722733
H   H74       1.0  0.89258  0.37448  0.31182  1.0000 0.1093886196
C   C122      1.0  0.83225  0.49619  0.13270  1.0000 0.1273155773
C   C123      1.0  0.87628  0.54651  0.16030  1.0000 -0.0081615486
H   H75       1.0  0.87117  0.59105  0.11891  1.0000 0.1093886196
C   C124      1.0  0.77700  0.51041  0.04120  1.0000 0.1798004315
C   C125      1.0  0.74119  0.45536  0.99100  1.0000 -0.2141628682
H   H76       1.0  0.75201  0.40939  0.01439  1.0000 0.1273155773
C   C126      1.0  0.68936  0.46915  0.90610  1.0000 0.1093886196
C   C127      1.0  0.64834  0.41152  0.85980  1.0000 0.1031350357
C   C128      1.0  0.64320  0.35279  0.94780  1.0000 -0.1804675057
H   H77       1.0  0.66663  0.34856  0.03616  1.0000 0.1222386344
C   C129      1.0  0.60372  0.30017  0.90650  1.0000 0.0796543359
H   H78       1.0  0.60041  0.26112  0.96953  1.0000 0.1093886196
C   C130      1.0  0.57554  0.35850  0.69530  1.0000 0.0796543359
H   H79       1.0  0.55264  0.36083  0.60581  1.0000 0.1031350357
C   C131      1.0  0.61329  0.41400  0.73070  1.0000 -0.1992846604
H   H80       1.0  0.61496  0.45300  0.66720  1.0000 0.1273155773
C   C132      1.0  0.67599  0.53796  0.87470  1.0000 -0.2235556289
H   H81       1.0  0.64186  0.54933  0.81531  1.0000 0.1273155773
C   C133      1.0  0.71359  0.59028  0.93190  1.0000 0.1870387004
C   C134      1.0  0.69654  0.66436  0.91510  1.0000 0.1222386344
C   C135      1.0  0.62812  0.74622  0.84110  1.0000 0.0194928837
H   H82       1.0  0.59171  0.75864  0.79174  1.0000 0.1273155773
C   C136      1.0  0.66193  0.79648  0.90590  1.0000 0.0282272438
H   H83       1.0  0.64774  0.84251  0.90291  1.0000 0.1093886196
C   C137      1.0  0.73121  0.71665  0.97670  1.0000 -0.0081615486
H   H84       1.0  0.76842  0.70496  0.02313  1.0000 0.1093886196
N   N46       1.0  0.00079  0.65193  0.44280  1.0000 -0.3706332638
N   N47       1.0  0.07415  0.53335  0.25574  1.0000 -0.1734541326
N   N48       1.0  0.16181  0.43148  0.31360  1.0000 -0.2325838252
N   N49       1.0  0.23642  0.57696  0.48610  1.0000 -0.3148434951
N   N50       1.0  0.35553  0.67903  0.65580  1.0000 -0.2445756092
N   N51       1.0  0.28545  0.78303  0.52630  1.0000 -0.1992846604
N   N52       1.0  0.43004  0.30237  0.71930  1.0000 -0.1931808486
C   C138      1.0  0.99863  0.68034  0.55830  1.0000 -0.3345529928
C   C139      1.0  0.06997  0.46966  0.19730  1.0000 0.0194928837
H   H85       1.0  0.03702  0.45895  0.13344  1.0000 0.1093886196
C   C140      1.0  0.11291  0.41916  0.22850  1.0000 0.0430722733
H   H86       1.0  0.10742  0.37448  0.18818  1.0000 0.1093886196
C   C141      1.0  0.16775  0.49619  0.36730  1.0000 0.1273155773
C   C142      1.0  0.12372  0.54651  0.33970  1.0000 -0.0081615486
H   H87       1.0  0.12883  0.59105  0.38109  1.0000 0.1093886196
C   C143      1.0  0.22300  0.51041  0.45880  1.0000 0.1798004315
C   C144      1.0  0.25881  0.45536  0.50900  1.0000 -0.2141628682
H   H88       1.0  0.24799  0.40939  0.48561  1.0000 0.1273155773
C   C145      1.0  0.31064  0.46915  0.59390  1.0000 0.1093886196
C   C146      1.0  0.35166  0.41152  0.64020  1.0000 0.1031350357
C   C147      1.0  0.35680  0.35279  0.55220  1.0000 -0.1804675057
H   H89       1.0  0.33337  0.34856  0.46384  1.0000 0.1222386344
C   C148      1.0  0.39628  0.30017  0.59350  1.0000 0.0662303486
H   H90       1.0  0.39959  0.26112  0.53047  1.0000 0.1031350357
C   C149      1.0  0.42446  0.35850  0.80470  1.0000 0.0796543359
H   H91       1.0  0.44736  0.36083  0.89419  1.0000 0.1093886196
C   C150      1.0  0.38671  0.41400  0.76930  1.0000 -0.1992846604
H   H92       1.0  0.38504  0.45300  0.83280  1.0000 0.1273155773
C   C151      1.0  0.32401  0.53796  0.62530  1.0000 -0.2235556289
H   H93       1.0  0.35814  0.54933  0.68469  1.0000 0.1273155773
C   C152      1.0  0.28641  0.59028  0.56810  1.0000 0.1870387004
C   C153      1.0  0.30346  0.66436  0.58490  1.0000 0.1222386344
C   C154      1.0  0.37188  0.74622  0.65890  1.0000 0.0141986751
H   H94       1.0  0.40829  0.75864  0.70826  1.0000 0.1222386344
C   C155      1.0  0.33807  0.79648  0.59410  1.0000 0.0282272438
H   H95       1.0  0.35226  0.84251  0.59709  1.0000 0.1093886196
C   C156      1.0  0.26879  0.71665  0.52330  1.0000 -0.0081615486
H   H96       1.0  0.23158  0.70496  0.47687  1.0000 0.1093886196
Cu  Cu5       1.0  0.50000  0.10721  0.25000  1.0000 0.3553099737
Cu  Cu6       1.0  0.00000  0.60721  0.25000  1.0000 0.3540614352
Cu  Cu7       1.0  0.50000  0.22660  0.75000  1.0000 0.2613255785
Cu  Cu8       1.0  0.00000  0.72660  0.75000  1.0000 0.2613255785
  N   N53       1.0  0.00079  0.34807  0.94280  1.0000
  C   C157      1.0  0.99921  0.34807  0.55720  1.0000
  N   N54       1.0  0.50079  0.84807  0.55720  1.0000
  C   C158      1.0  0.49921  0.84807  0.94280  1.0000
  N   N55       1.0  0.49921  0.15193  0.44280  1.0000
  C   C159      1.0  0.50079  0.15193  0.05720  1.0000
  N   N56       1.0  0.99921  0.65193  0.05720  1.0000
  C   C160      1.0  0.00079  0.65193  0.44280  1.0000
