# DDEC6 charges by PACMAN v1.1 (https://github.com/mtap-research/PACMAN-charge/)
data_YUNHOH01_FSR_pacman
_chemical_formula_sum              "N52 C156 H96 Cu8"
_cell_length_a       21.893
_cell_length_b       19.255
_cell_length_c       8.89
_cell_angle_alpha    90
_cell_angle_beta     90
_cell_angle_gamma    90

_symmetry_space_group_name_H-M    "P 1"
_symmetry_Int_Tables_number       1

loop_
  _symmetry_equiv_pos_as_xyz
  'x, y, z'

loop_
  _atom_site_type_symbol
  _atom_site_label
  _atom_site_symmetry_multiplicity
  _atom_site_fract_x
  _atom_site_fract_y
  _atom_site_fract_z
  _atom_site_occupancy
 _atom_site_charge
N   N1        1.0  0.00062  0.34793  0.94240  1.0000 -0.3809379618
N   N2        1.0  0.07423  0.46667  0.75620  1.0000 -0.17237843
N   N3        1.0  0.16164  0.56864  0.81380  1.0000 -0.2288253214
N   N4        1.0  0.23649  0.42357  0.98620  1.0000 -0.3139767851
N   N5        1.0  0.35553  0.32145  0.15580  1.0000 -0.2443064841
N   N6        1.0  0.28552  0.21724  0.02630  1.0000 -0.2010102485
N   N7        1.0  0.42994  0.69856  0.21880  1.0000 -0.1922750677
C   C1        1.0  0.99845  0.32037  0.05930  1.0000 -0.3401030208
C   C2        1.0  0.07000  0.53039  0.69770  1.0000 0.0193883629
H   H1        1.0  0.03699  0.54108  0.63419  1.0000 0.1092160244
C   C3        1.0  0.11290  0.58083  0.72830  1.0000 0.0407408547
H   H2        1.0  0.10755  0.62542  0.68728  1.0000 0.1092160244
C   C4        1.0  0.16773  0.50395  0.86700  1.0000 0.128528474
C   C5        1.0  0.12363  0.45366  0.84010  1.0000 -0.0041392673
H   H3        1.0  0.12862  0.40921  0.88209  1.0000 0.1092160244
C   C6        1.0  0.22306  0.49015  0.95900  1.0000 0.1793086716
C   C7        1.0  0.25868  0.54494  0.00850  1.0000 -0.2145392428
H   H4        1.0  0.24787  0.59092  0.98487  1.0000 0.128528474
C   C8        1.0  0.31061  0.53129  0.09340  1.0000 0.1092160244
C   C9        1.0  0.35146  0.58937  0.14030  1.0000 0.1028579922
C   C10       1.0  0.35663  0.64792  0.05210  1.0000 -0.1836084555
H   H5        1.0  0.33329  0.65211  0.96378  1.0000 0.1222545588
C   C11       1.0  0.39626  0.70059  0.09370  1.0000 0.071543539
H   H6        1.0  0.39961  0.73964  0.03080  1.0000 0.1028579922
C   C12       1.0  0.42422  0.64217  0.30340  1.0000 0.0799247518
H   H7        1.0  0.44725  0.63963  0.39244  1.0000 0.1092160244
C   C13       1.0  0.38642  0.58683  0.26850  1.0000 -0.2010102485
H   H8        1.0  0.38468  0.54786  0.33207  1.0000 0.128528474
C   C14       1.0  0.32392  0.46285  0.12530  1.0000 -0.2222084123
H   H9        1.0  0.35799  0.45163  0.18483  1.0000 0.128528474
C   C15       1.0  0.28649  0.41031  0.06850  1.0000 0.1865909845
C   C16       1.0  0.30338  0.33620  0.08520  1.0000 0.1222545588
C   C17       1.0  0.37175  0.25410  0.15930  1.0000 0.0144585661
H   H10       1.0  0.40791  0.24164  0.20953  1.0000 0.1222545588
C   C18       1.0  0.33809  0.20349  0.09340  1.0000 0.0333020967
H   H11       1.0  0.35243  0.15749  0.09545  1.0000 0.1092160244
C   C19       1.0  0.26869  0.28377  0.02400  1.0000 -0.0075581816
H   H12       1.0  0.23135  0.29541  0.97826  1.0000 0.1092160244
C   C20       1.0  0.99938  0.34793  0.55760  1.0000 -0.3718269001
N   N8        1.0  0.92577  0.46667  0.74380  1.0000 -0.17237843
N   N9        1.0  0.83836  0.56864  0.68620  1.0000 -0.2288253214
N   N10       1.0  0.76351  0.42357  0.51380  1.0000 -0.3152777161
N   N11       1.0  0.64447  0.32145  0.34420  1.0000 -0.2443064841
N   N12       1.0  0.71448  0.21724  0.47370  1.0000 -0.2010102485
N   N13       1.0  0.57006  0.69856  0.28120  1.0000 -0.1922750677
C   C21       1.0  0.00155  0.32037  0.44070  1.0000 -0.1261024474
C   C22       1.0  0.93000  0.53039  0.80230  1.0000 0.0193883629
H   H13       1.0  0.96301  0.54108  0.86581  1.0000 0.1222545588
C   C23       1.0  0.88710  0.58083  0.77170  1.0000 0.0407408547
H   H14       1.0  0.89245  0.62542  0.81272  1.0000 0.1092160244
C   C24       1.0  0.83227  0.50395  0.63300  1.0000 0.128528474
C   C25       1.0  0.87637  0.45366  0.65990  1.0000 -0.0075581816
H   H15       1.0  0.87138  0.40921  0.61791  1.0000 0.1092160244
C   C26       1.0  0.77694  0.49015  0.54100  1.0000 0.1793086716
C   C27       1.0  0.74132  0.54494  0.49150  1.0000 -0.2145392428
H   H16       1.0  0.75213  0.59092  0.51513  1.0000 0.128528474
C   C28       1.0  0.68939  0.53129  0.40660  1.0000 0.1092160244
C   C29       1.0  0.64854  0.58937  0.35970  1.0000 0.1028579922
C   C30       1.0  0.64337  0.64792  0.44790  1.0000 -0.1836084555
H   H17       1.0  0.66671  0.65211  0.53622  1.0000 0.1222545588
C   C31       1.0  0.60374  0.70059  0.40630  1.0000 0.0799247518
H   H18       1.0  0.60039  0.73964  0.46920  1.0000 0.1092160244
C   C32       1.0  0.57578  0.64217  0.19660  1.0000 0.0799247518
H   H19       1.0  0.55275  0.63963  0.10756  1.0000 0.1028579922
C   C33       1.0  0.61358  0.58683  0.23150  1.0000 -0.2010102485
H   H20       1.0  0.61532  0.54786  0.16793  1.0000 0.128528474
C   C34       1.0  0.67608  0.46285  0.37470  1.0000 -0.2222084123
H   H21       1.0  0.64201  0.45163  0.31517  1.0000 0.128528474
C   C35       1.0  0.71351  0.41031  0.43150  1.0000 0.1865909845
C   C36       1.0  0.69662  0.33620  0.41480  1.0000 0.1222545588
C   C37       1.0  0.62825  0.25410  0.34070  1.0000 0.0193883629
H   H22       1.0  0.59209  0.24164  0.29047  1.0000 0.1222545588
C   C38       1.0  0.66191  0.20349  0.40660  1.0000 0.0333020967
H   H23       1.0  0.64757  0.15749  0.40455  1.0000 0.1092160244
C   C39       1.0  0.73131  0.28377  0.47600  1.0000 -0.0075581816
H   H24       1.0  0.76865  0.29541  0.52174  1.0000 0.1092160244
N   N14       1.0  0.50062  0.84793  0.55760  1.0000 -0.3809379618
N   N15       1.0  0.57423  0.96667  0.74380  1.0000 -0.17237843
N   N16       1.0  0.66164  0.06864  0.68620  1.0000 -0.2288253214
N   N17       1.0  0.73649  0.92357  0.51380  1.0000 -0.3139767851
N   N18       1.0  0.85553  0.82145  0.34420  1.0000 -0.2443064841
N   N19       1.0  0.78552  0.71724  0.47370  1.0000 -0.2010102485
N   N20       1.0  0.92994  0.19856  0.28120  1.0000 -0.1922750677
C   C40       1.0  0.49845  0.82037  0.44070  1.0000 -0.3401030208
C   C41       1.0  0.57000  0.03039  0.80230  1.0000 0.0193883629
H   H25       1.0  0.53699  0.04108  0.86581  1.0000 0.1092160244
C   C42       1.0  0.61290  0.08083  0.77170  1.0000 0.0407408547
H   H26       1.0  0.60755  0.12542  0.81272  1.0000 0.1092160244
C   C43       1.0  0.66773  0.00395  0.63300  1.0000 0.128528474
C   C44       1.0  0.62363  0.95366  0.65990  1.0000 -0.0041392673
H   H27       1.0  0.62862  0.90921  0.61791  1.0000 0.1092160244
C   C45       1.0  0.72306  0.99015  0.54100  1.0000 0.1793086716
C   C46       1.0  0.75868  0.04494  0.49150  1.0000 -0.2145392428
H   H28       1.0  0.74787  0.09092  0.51513  1.0000 0.128528474
C   C47       1.0  0.81061  0.03129  0.40660  1.0000 0.1092160244
C   C48       1.0  0.85146  0.08937  0.35970  1.0000 0.1028579922
C   C49       1.0  0.85663  0.14792  0.44790  1.0000 -0.1836084555
H   H29       1.0  0.83329  0.15211  0.53622  1.0000 0.1222545588
C   C50       1.0  0.89626  0.20059  0.40630  1.0000 0.071543539
H   H30       1.0  0.89961  0.23964  0.46920  1.0000 0.1028579922
C   C51       1.0  0.92422  0.14217  0.19660  1.0000 0.0799247518
H   H31       1.0  0.94725  0.13963  0.10756  1.0000 0.1092160244
C   C52       1.0  0.88642  0.08683  0.23150  1.0000 -0.2010102485
H   H32       1.0  0.88468  0.04786  0.16793  1.0000 0.128528474
C   C53       1.0  0.82392  0.96285  0.37470  1.0000 -0.2222084123
H   H33       1.0  0.85799  0.95163  0.31517  1.0000 0.128528474
C   C54       1.0  0.78649  0.91031  0.43150  1.0000 0.1865909845
C   C55       1.0  0.80338  0.83620  0.41480  1.0000 0.1222545588
C   C56       1.0  0.87175  0.75410  0.34070  1.0000 0.0144585661
H   H34       1.0  0.90791  0.74164  0.29047  1.0000 0.1222545588
C   C57       1.0  0.83809  0.70349  0.40660  1.0000 0.0333020967
H   H35       1.0  0.85243  0.65749  0.40455  1.0000 0.1092160244
C   C58       1.0  0.76869  0.78377  0.47600  1.0000 -0.0075581816
H   H36       1.0  0.73135  0.79541  0.52174  1.0000 0.1092160244
C   C59       1.0  0.49938  0.84793  0.94240  1.0000 -0.3718269001
N   N21       1.0  0.42577  0.96667  0.75620  1.0000 -0.17237843
N   N22       1.0  0.33836  0.06864  0.81380  1.0000 -0.2288253214
N   N23       1.0  0.26351  0.92357  0.98620  1.0000 -0.3152777161
N   N24       1.0  0.14447  0.82145  0.15580  1.0000 -0.2443064841
N   N25       1.0  0.21448  0.71724  0.02630  1.0000 -0.2010102485
N   N26       1.0  0.07006  0.19856  0.21880  1.0000 -0.1922750677
C   C60       1.0  0.50155  0.82037  0.05930  1.0000 -0.1261024474
C   C61       1.0  0.43000  0.03039  0.69770  1.0000 0.0193883629
H   H37       1.0  0.46301  0.04108  0.63419  1.0000 0.1222545588
C   C62       1.0  0.38710  0.08083  0.72830  1.0000 0.0407408547
H   H38       1.0  0.39245  0.12542  0.68728  1.0000 0.1092160244
C   C63       1.0  0.33227  0.00395  0.86700  1.0000 0.128528474
C   C64       1.0  0.37637  0.95366  0.84010  1.0000 -0.0075581816
H   H39       1.0  0.37138  0.90921  0.88209  1.0000 0.1092160244
C   C65       1.0  0.27694  0.99015  0.95900  1.0000 0.1793086716
C   C66       1.0  0.24132  0.04494  0.00850  1.0000 -0.2145392428
H   H40       1.0  0.25213  0.09092  0.98487  1.0000 0.128528474
C   C67       1.0  0.18939  0.03129  0.09340  1.0000 0.1092160244
C   C68       1.0  0.14854  0.08937  0.14030  1.0000 0.1028579922
C   C69       1.0  0.14337  0.14792  0.05210  1.0000 -0.1836084555
H   H41       1.0  0.16671  0.15211  0.96378  1.0000 0.1222545588
C   C70       1.0  0.10374  0.20059  0.09370  1.0000 0.0799247518
H   H42       1.0  0.10039  0.23964  0.03080  1.0000 0.1092160244
C   C71       1.0  0.07578  0.14217  0.30340  1.0000 0.0799247518
H   H43       1.0  0.05275  0.13963  0.39244  1.0000 0.1028579922
C   C72       1.0  0.11358  0.08683  0.26850  1.0000 -0.2010102485
H   H44       1.0  0.11532  0.04786  0.33207  1.0000 0.128528474
C   C73       1.0  0.17608  0.96285  0.12530  1.0000 -0.2222084123
H   H45       1.0  0.14201  0.95163  0.18483  1.0000 0.128528474
C   C74       1.0  0.21351  0.91031  0.06850  1.0000 0.1865909845
C   C75       1.0  0.19662  0.83620  0.08520  1.0000 0.1222545588
C   C76       1.0  0.12825  0.75410  0.15930  1.0000 0.0193883629
H   H46       1.0  0.09209  0.74164  0.20953  1.0000 0.1222545588
C   C77       1.0  0.16191  0.70349  0.09340  1.0000 0.0333020967
H   H47       1.0  0.14757  0.65749  0.09545  1.0000 0.1092160244
C   C78       1.0  0.23131  0.78377  0.02400  1.0000 -0.0075581816
H   H48       1.0  0.26865  0.79541  0.97826  1.0000 0.1092160244
Cu  Cu1       1.0  0.00000  0.39259  0.75000  1.0000 0.3564303313
Cu  Cu2       1.0  0.50000  0.89259  0.75000  1.0000 0.3564303313
Cu  Cu3       1.0  0.00000  0.27410  0.25000  1.0000 0.259855481
Cu  Cu4       1.0  0.50000  0.77410  0.25000  1.0000 0.259855481
N   N27       1.0  0.49938  0.15207  0.44240  1.0000 -0.3809379618
N   N28       1.0  0.42577  0.03333  0.25620  1.0000 -0.17237843
N   N29       1.0  0.33836  0.93136  0.31380  1.0000 -0.2288253214
N   N30       1.0  0.26351  0.07643  0.48620  1.0000 -0.3139767851
N   N31       1.0  0.14447  0.17855  0.65580  1.0000 -0.2443064841
N   N32       1.0  0.21448  0.28276  0.52630  1.0000 -0.2010102485
N   N33       1.0  0.07006  0.80144  0.71880  1.0000 -0.1922750677
C   C79       1.0  0.50155  0.17963  0.55930  1.0000 -0.3401030208
C   C80       1.0  0.43000  0.96961  0.19770  1.0000 0.0193883629
H   H49       1.0  0.46301  0.95892  0.13419  1.0000 0.1092160244
C   C81       1.0  0.38710  0.91917  0.22830  1.0000 0.0407408547
H   H50       1.0  0.39245  0.87458  0.18728  1.0000 0.1092160244
C   C82       1.0  0.33227  0.99605  0.36700  1.0000 0.128528474
C   C83       1.0  0.37637  0.04634  0.34010  1.0000 -0.0041392673
H   H51       1.0  0.37138  0.09079  0.38209  1.0000 0.1092160244
C   C84       1.0  0.27694  0.00985  0.45900  1.0000 0.1793086716
C   C85       1.0  0.24132  0.95506  0.50850  1.0000 -0.2145392428
H   H52       1.0  0.25213  0.90908  0.48487  1.0000 0.128528474
C   C86       1.0  0.18939  0.96871  0.59340  1.0000 0.1092160244
C   C87       1.0  0.14854  0.91063  0.64030  1.0000 0.1028579922
C   C88       1.0  0.14337  0.85208  0.55210  1.0000 -0.1836084555
H   H53       1.0  0.16671  0.84789  0.46378  1.0000 0.1222545588
C   C89       1.0  0.10374  0.79941  0.59370  1.0000 0.071543539
H   H54       1.0  0.10039  0.76036  0.53080  1.0000 0.1028579922
C   C90       1.0  0.07578  0.85783  0.80340  1.0000 0.0799247518
H   H55       1.0  0.05275  0.86037  0.89244  1.0000 0.1092160244
C   C91       1.0  0.11358  0.91317  0.76850  1.0000 -0.2010102485
H   H56       1.0  0.11532  0.95214  0.83207  1.0000 0.128528474
C   C92       1.0  0.17608  0.03715  0.62530  1.0000 -0.2222084123
H   H57       1.0  0.14201  0.04837  0.68483  1.0000 0.128528474
C   C93       1.0  0.21351  0.08969  0.56850  1.0000 0.1865909845
C   C94       1.0  0.19662  0.16380  0.58520  1.0000 0.1222545588
C   C95       1.0  0.12825  0.24590  0.65930  1.0000 0.0144585661
H   H58       1.0  0.09209  0.25836  0.70953  1.0000 0.1222545588
C   C96       1.0  0.16191  0.29651  0.59340  1.0000 0.0333020967
H   H59       1.0  0.14757  0.34252  0.59545  1.0000 0.1092160244
C   C97       1.0  0.23131  0.21623  0.52400  1.0000 -0.0075581816
H   H60       1.0  0.26865  0.20459  0.47826  1.0000 0.1092160244
C   C98       1.0  0.50062  0.15207  0.05760  1.0000 -0.3718269001
N   N34       1.0  0.57423  0.03333  0.24380  1.0000 -0.17237843
N   N35       1.0  0.66164  0.93136  0.18620  1.0000 -0.2288253214
N   N36       1.0  0.73649  0.07643  0.01380  1.0000 -0.3152777161
N   N37       1.0  0.85553  0.17855  0.84420  1.0000 -0.2443064841
N   N38       1.0  0.78552  0.28276  0.97370  1.0000 -0.2010102485
N   N39       1.0  0.92994  0.80144  0.78120  1.0000 -0.1922750677
C   C99       1.0  0.49845  0.17963  0.94070  1.0000 -0.1261024474
C   C100      1.0  0.57000  0.96961  0.30230  1.0000 0.0193883629
H   H61       1.0  0.53699  0.95892  0.36581  1.0000 0.1222545588
C   C101      1.0  0.61290  0.91917  0.27170  1.0000 0.0407408547
H   H62       1.0  0.60755  0.87458  0.31272  1.0000 0.1092160244
C   C102      1.0  0.66773  0.99605  0.13300  1.0000 0.128528474
C   C103      1.0  0.62363  0.04634  0.15990  1.0000 -0.0075581816
H   H63       1.0  0.62862  0.09079  0.11791  1.0000 0.1092160244
C   C104      1.0  0.72306  0.00985  0.04100  1.0000 0.1793086716
C   C105      1.0  0.75868  0.95506  0.99150  1.0000 -0.2145392428
H   H64       1.0  0.74787  0.90908  0.01513  1.0000 0.128528474
C   C106      1.0  0.81061  0.96871  0.90660  1.0000 0.1092160244
C   C107      1.0  0.85146  0.91063  0.85970  1.0000 0.1028579922
C   C108      1.0  0.85663  0.85208  0.94790  1.0000 -0.1836084555
H   H65       1.0  0.83329  0.84789  0.03622  1.0000 0.1222545588
C   C109      1.0  0.89626  0.79941  0.90630  1.0000 0.0799247518
H   H66       1.0  0.89961  0.76036  0.96920  1.0000 0.1092160244
C   C110      1.0  0.92422  0.85783  0.69660  1.0000 0.0799247518
H   H67       1.0  0.94725  0.86037  0.60756  1.0000 0.1028579922
C   C111      1.0  0.88642  0.91317  0.73150  1.0000 -0.2010102485
H   H68       1.0  0.88468  0.95214  0.66793  1.0000 0.128528474
C   C112      1.0  0.82392  0.03715  0.87470  1.0000 -0.2222084123
H   H69       1.0  0.85799  0.04837  0.81517  1.0000 0.128528474
C   C113      1.0  0.78649  0.08969  0.93150  1.0000 0.1865909845
C   C114      1.0  0.80338  0.16380  0.91480  1.0000 0.1222545588
C   C115      1.0  0.87175  0.24590  0.84070  1.0000 0.0193883629
H   H70       1.0  0.90791  0.25836  0.79047  1.0000 0.1222545588
C   C116      1.0  0.83809  0.29651  0.90660  1.0000 0.0333020967
H   H71       1.0  0.85243  0.34252  0.90455  1.0000 0.1092160244
C   C117      1.0  0.76869  0.21623  0.97600  1.0000 -0.0075581816
H   H72       1.0  0.73135  0.20459  0.02174  1.0000 0.1092160244
N   N40       1.0  0.99938  0.65207  0.05760  1.0000 -0.3809379618
N   N41       1.0  0.92577  0.53333  0.24380  1.0000 -0.17237843
N   N42       1.0  0.83836  0.43136  0.18620  1.0000 -0.2288253214
N   N43       1.0  0.76351  0.57643  0.01380  1.0000 -0.3139767851
N   N44       1.0  0.64447  0.67855  0.84420  1.0000 -0.2443064841
N   N45       1.0  0.71448  0.78276  0.97370  1.0000 -0.2010102485
N   N46       1.0  0.57006  0.30144  0.78120  1.0000 -0.1922750677
C   C118      1.0  0.00155  0.67963  0.94070  1.0000 -0.3401030208
C   C119      1.0  0.93000  0.46961  0.30230  1.0000 0.0193883629
H   H73       1.0  0.96301  0.45892  0.36581  1.0000 0.1092160244
C   C120      1.0  0.88710  0.41917  0.27170  1.0000 0.0407408547
H   H74       1.0  0.89245  0.37458  0.31272  1.0000 0.1092160244
C   C121      1.0  0.83227  0.49605  0.13300  1.0000 0.128528474
C   C122      1.0  0.87637  0.54634  0.15990  1.0000 -0.0041392673
H   H75       1.0  0.87138  0.59079  0.11791  1.0000 0.1092160244
C   C123      1.0  0.77694  0.50985  0.04100  1.0000 0.1793086716
C   C124      1.0  0.74132  0.45506  0.99150  1.0000 -0.2145392428
H   H76       1.0  0.75213  0.40908  0.01513  1.0000 0.128528474
C   C125      1.0  0.68939  0.46871  0.90660  1.0000 0.1092160244
C   C126      1.0  0.64854  0.41063  0.85970  1.0000 0.1028579922
C   C127      1.0  0.64337  0.35208  0.94790  1.0000 -0.1836084555
H   H77       1.0  0.66671  0.34789  0.03622  1.0000 0.1222545588
C   C128      1.0  0.60374  0.29941  0.90630  1.0000 0.071543539
H   H78       1.0  0.60039  0.26036  0.96920  1.0000 0.1028579922
C   C129      1.0  0.57578  0.35783  0.69660  1.0000 0.0799247518
H   H79       1.0  0.55275  0.36037  0.60756  1.0000 0.1092160244
C   C130      1.0  0.61358  0.41317  0.73150  1.0000 -0.2010102485
H   H80       1.0  0.61532  0.45214  0.66793  1.0000 0.128528474
C   C131      1.0  0.67608  0.53715  0.87470  1.0000 -0.2222084123
H   H81       1.0  0.64201  0.54837  0.81517  1.0000 0.128528474
C   C132      1.0  0.71351  0.58969  0.93150  1.0000 0.1865909845
C   C133      1.0  0.69662  0.66380  0.91480  1.0000 0.1222545588
C   C134      1.0  0.62825  0.74590  0.84070  1.0000 0.0144585661
H   H82       1.0  0.59209  0.75836  0.79047  1.0000 0.1222545588
C   C135      1.0  0.66191  0.79651  0.90660  1.0000 0.0333020967
H   H83       1.0  0.64757  0.84252  0.90455  1.0000 0.1092160244
C   C136      1.0  0.73131  0.71623  0.97600  1.0000 -0.0075581816
H   H84       1.0  0.76865  0.70459  0.02174  1.0000 0.1092160244
C   C137      1.0  0.00062  0.65207  0.44240  1.0000 -0.3718269001
N   N47       1.0  0.07423  0.53333  0.25620  1.0000 -0.17237843
N   N48       1.0  0.16164  0.43136  0.31380  1.0000 -0.2288253214
N   N49       1.0  0.23649  0.57643  0.48620  1.0000 -0.3152777161
N   N50       1.0  0.35553  0.67855  0.65580  1.0000 -0.2443064841
N   N51       1.0  0.28552  0.78276  0.52630  1.0000 -0.2010102485
N   N52       1.0  0.42994  0.30144  0.71880  1.0000 -0.1922750677
C   C138      1.0  0.99845  0.67963  0.55930  1.0000 -0.1261024474
C   C139      1.0  0.07000  0.46961  0.19770  1.0000 0.0193883629
H   H85       1.0  0.03699  0.45892  0.13419  1.0000 0.1222545588
C   C140      1.0  0.11290  0.41917  0.22830  1.0000 0.0407408547
H   H86       1.0  0.10755  0.37458  0.18728  1.0000 0.1092160244
C   C141      1.0  0.16773  0.49605  0.36700  1.0000 0.128528474
C   C142      1.0  0.12363  0.54634  0.34010  1.0000 -0.0075581816
H   H87       1.0  0.12862  0.59079  0.38209  1.0000 0.1092160244
C   C143      1.0  0.22306  0.50985  0.45900  1.0000 0.1793086716
C   C144      1.0  0.25868  0.45506  0.50850  1.0000 -0.2145392428
H   H88       1.0  0.24787  0.40908  0.48487  1.0000 0.128528474
C   C145      1.0  0.31061  0.46871  0.59340  1.0000 0.1092160244
C   C146      1.0  0.35146  0.41063  0.64030  1.0000 0.1028579922
C   C147      1.0  0.35663  0.35208  0.55210  1.0000 -0.1836084555
H   H89       1.0  0.33329  0.34789  0.46378  1.0000 0.1222545588
C   C148      1.0  0.39626  0.29941  0.59370  1.0000 0.0799247518
H   H90       1.0  0.39961  0.26036  0.53080  1.0000 0.1092160244
C   C149      1.0  0.42422  0.35783  0.80340  1.0000 0.0799247518
H   H91       1.0  0.44725  0.36037  0.89244  1.0000 0.1028579922
C   C150      1.0  0.38642  0.41317  0.76850  1.0000 -0.2010102485
H   H92       1.0  0.38468  0.45214  0.83207  1.0000 0.128528474
C   C151      1.0  0.32392  0.53715  0.62530  1.0000 -0.2222084123
H   H93       1.0  0.35799  0.54837  0.68483  1.0000 0.128528474
C   C152      1.0  0.28649  0.58969  0.56850  1.0000 0.1865909845
C   C153      1.0  0.30338  0.66380  0.58520  1.0000 0.1222545588
C   C154      1.0  0.37175  0.74590  0.65930  1.0000 0.0193883629
H   H94       1.0  0.40791  0.75836  0.70953  1.0000 0.1222545588
C   C155      1.0  0.33809  0.79651  0.59340  1.0000 0.0333020967
H   H95       1.0  0.35243  0.84252  0.59545  1.0000 0.1092160244
C   C156      1.0  0.26869  0.71623  0.52400  1.0000 -0.0075581816
H   H96       1.0  0.23135  0.70459  0.47826  1.0000 0.1092160244
Cu  Cu5       1.0  0.50000  0.10741  0.25000  1.0000 0.3564303313
Cu  Cu6       1.0  0.00000  0.60741  0.25000  1.0000 0.3564303313
Cu  Cu7       1.0  0.50000  0.22590  0.75000  1.0000 0.259855481
Cu  Cu8       1.0  0.00000  0.72590  0.75000  1.0000 0.259855481
  C   C157      1.0  0.00062  0.34793  0.94240  1.0000
  N   N53       1.0  0.99938  0.34793  0.55760  1.0000
  C   C158      1.0  0.50062  0.84793  0.55760  1.0000
  N   N54       1.0  0.49938  0.84793  0.94240  1.0000
  C   C159      1.0  0.49938  0.15207  0.44240  1.0000
  N   N55       1.0  0.50062  0.15207  0.05760  1.0000
  C   C160      1.0  0.99938  0.65207  0.05760  1.0000
  N   N56       1.0  0.00062  0.65207  0.44240  1.0000
