# DDEC6 charges by PACMAN v1.1 (https://github.com/mtap-research/PACMAN-charge/)
data_YUNJAV_FSR_pacman
_chemical_formula_sum              "N52 C156 H96 Cu8"
_cell_length_a       21.907
_cell_length_b       19.269
_cell_length_c       8.882
_cell_angle_alpha    90
_cell_angle_beta     90
_cell_angle_gamma    90

_symmetry_space_group_name_H-M    "P 1"
_symmetry_Int_Tables_number       1

loop_
  _symmetry_equiv_pos_as_xyz
  'x, y, z'

loop_
  _atom_site_type_symbol
  _atom_site_label
  _atom_site_symmetry_multiplicity
  _atom_site_fract_x
  _atom_site_fract_y
  _atom_site_fract_z
  _atom_site_occupancy
 _atom_site_charge
N   N1        1.0  0.00066  0.34741  0.94290  1.0000 -0.3601722679
C   C1        1.0  0.99875  0.31940  0.05770  1.0000 -0.324666305
N   N2        1.0  0.07449  0.46631  0.75638  1.0000 -0.1747479363
C   C2        1.0  0.07041  0.52997  0.69830  1.0000 0.0226903336
H   H1        1.0  0.03802  0.54044  0.63449  1.0000 0.1093787311
N   N3        1.0  0.16151  0.56833  0.81510  1.0000 -0.2291765789
C   C3        1.0  0.11294  0.58076  0.73020  1.0000 0.0449072273
H   H2        1.0  0.10735  0.62504  0.69090  1.0000 0.1093787311
N   N4        1.0  0.23612  0.42293  0.98760  1.0000 -0.3100973329
C   C4        1.0  0.16770  0.50362  0.86850  1.0000 0.1216089779
N   N5        1.0  0.35441  0.32063  0.15760  1.0000 -0.2420871722
C   C5        1.0  0.12407  0.45354  0.84080  1.0000 -0.0084818975
H   H3        1.0  0.12919  0.40954  0.88186  1.0000 0.1093787311
N   N6        1.0  0.28468  0.21705  0.02830  1.0000 -0.1989071641
C   C6        1.0  0.22303  0.48943  0.95950  1.0000 0.1810956282
N   N7        1.0  0.42986  0.69752  0.21940  1.0000 -0.1989071641
C   C7        1.0  0.25880  0.54442  0.00990  1.0000 -0.2119741233
H   H4        1.0  0.24806  0.58997  0.98750  1.0000 0.1269531897
C   C8        1.0  0.31062  0.53032  0.09380  1.0000 0.1027216689
C   C9        1.0  0.35170  0.58824  0.14000  1.0000 0.1027216689
C   C10       1.0  0.35759  0.64632  0.05120  1.0000 -0.1782416178
H   H5        1.0  0.33515  0.65015  0.96267  1.0000 0.1216089779
C   C11       1.0  0.39681  0.69899  0.09330  1.0000 0.0709229132
H   H6        1.0  0.40034  0.73742  0.03058  1.0000 0.1027216689
C   C12       1.0  0.42365  0.64170  0.30470  1.0000 0.0820457465
H   H7        1.0  0.44582  0.63975  0.39392  1.0000 0.1027216689
C   C13       1.0  0.38614  0.58575  0.26980  1.0000 -0.1989071641
H   H8        1.0  0.38432  0.54729  0.33287  1.0000 0.1269531897
C   C14       1.0  0.32360  0.46191  0.12570  1.0000 -0.2168656847
H   H9        1.0  0.35732  0.45068  0.18443  1.0000 0.1269531897
C   C15       1.0  0.28601  0.40964  0.06960  1.0000 0.1866502987
C   C16       1.0  0.30263  0.33553  0.08680  1.0000 0.1216089779
C   C17       1.0  0.37017  0.25335  0.16100  1.0000 0.0102428451
H   H10       1.0  0.40590  0.24086  0.21060  1.0000 0.1216089779
C   C18       1.0  0.33689  0.20349  0.09630  1.0000 0.0226903336
H   H11       1.0  0.35091  0.15795  0.09926  1.0000 0.1093787311
C   C19       1.0  0.26816  0.28341  0.02540  1.0000 -0.0084818975
H   H12       1.0  0.23142  0.29503  0.97935  1.0000 0.1093787311
C   C20       1.0  0.99934  0.34741  0.55710  1.0000 -0.3658712691
C   C21       1.0  0.00125  0.31940  0.44230  1.0000 -0.1212588398
N   N8        1.0  0.92551  0.46631  0.74362  1.0000 -0.1782416178
C   C22       1.0  0.92959  0.52997  0.80170  1.0000 0.0226903336
H   H13       1.0  0.96198  0.54044  0.86551  1.0000 0.1216089779
N   N9        1.0  0.83849  0.56833  0.68490  1.0000 -0.2291765789
C   C23       1.0  0.88706  0.58076  0.76980  1.0000 0.0456717351
H   H14       1.0  0.89265  0.62504  0.80910  1.0000 0.1093787311
N   N10       1.0  0.76388  0.42293  0.51240  1.0000 -0.3100973329
C   C24       1.0  0.83230  0.50362  0.63150  1.0000 0.1216089779
N   N11       1.0  0.64559  0.32063  0.34240  1.0000 -0.2420871722
C   C25       1.0  0.87593  0.45354  0.65920  1.0000 -0.0084818975
H   H15       1.0  0.87081  0.40954  0.61814  1.0000 0.1093787311
N   N12       1.0  0.71532  0.21705  0.47170  1.0000 -0.1989071641
C   C26       1.0  0.77697  0.48943  0.54050  1.0000 0.1810956282
N   N13       1.0  0.57014  0.69752  0.28060  1.0000 -0.1989071641
C   C27       1.0  0.74120  0.54442  0.49010  1.0000 -0.2119741233
H   H16       1.0  0.75194  0.58997  0.51250  1.0000 0.1269531897
C   C28       1.0  0.68938  0.53032  0.40620  1.0000 0.1027216689
C   C29       1.0  0.64830  0.58824  0.36000  1.0000 0.1027216689
C   C30       1.0  0.64241  0.64632  0.44880  1.0000 -0.1782416178
H   H17       1.0  0.66485  0.65015  0.53733  1.0000 0.1216089779
C   C31       1.0  0.60319  0.69899  0.40670  1.0000 0.0820457465
H   H18       1.0  0.59966  0.73742  0.46942  1.0000 0.1093787311
C   C32       1.0  0.57635  0.64170  0.19530  1.0000 0.0820457465
H   H19       1.0  0.55418  0.63975  0.10608  1.0000 0.1027216689
C   C33       1.0  0.61386  0.58575  0.23020  1.0000 -0.1989071641
H   H20       1.0  0.61568  0.54729  0.16713  1.0000 0.1269531897
C   C34       1.0  0.67640  0.46191  0.37430  1.0000 -0.2168656847
H   H21       1.0  0.64268  0.45068  0.31557  1.0000 0.1269531897
C   C35       1.0  0.71399  0.40964  0.43040  1.0000 0.1866502987
C   C36       1.0  0.69737  0.33553  0.41320  1.0000 0.1216089779
C   C37       1.0  0.62983  0.25335  0.33900  1.0000 0.0102428451
H   H22       1.0  0.59410  0.24086  0.28940  1.0000 0.1216089779
C   C38       1.0  0.66311  0.20349  0.40370  1.0000 0.0294018445
H   H23       1.0  0.64909  0.15795  0.40074  1.0000 0.1093787311
C   C39       1.0  0.73184  0.28341  0.47460  1.0000 -0.0084818975
H   H24       1.0  0.76858  0.29503  0.52065  1.0000 0.1093787311
N   N14       1.0  0.50066  0.84741  0.55710  1.0000 -0.3601722679
C   C40       1.0  0.49875  0.81940  0.44230  1.0000 -0.3265000915
N   N15       1.0  0.57449  0.96631  0.74362  1.0000 -0.1747479363
C   C41       1.0  0.57041  0.02997  0.80170  1.0000 0.0226903336
H   H25       1.0  0.53802  0.04044  0.86551  1.0000 0.1093787311
N   N16       1.0  0.66151  0.06833  0.68490  1.0000 -0.2291765789
C   C42       1.0  0.61294  0.08076  0.76980  1.0000 0.0449072273
H   H26       1.0  0.60735  0.12504  0.80910  1.0000 0.1093787311
N   N17       1.0  0.73612  0.92293  0.51240  1.0000 -0.3100973329
C   C43       1.0  0.66770  0.00362  0.63150  1.0000 0.1216089779
N   N18       1.0  0.85441  0.82063  0.34240  1.0000 -0.2420871722
C   C44       1.0  0.62407  0.95354  0.65920  1.0000 -0.0084818975
H   H27       1.0  0.62919  0.90954  0.61814  1.0000 0.1093787311
N   N19       1.0  0.78468  0.71705  0.47170  1.0000 -0.1989071641
C   C45       1.0  0.72303  0.98943  0.54050  1.0000 0.1810956282
N   N20       1.0  0.92986  0.19752  0.28060  1.0000 -0.1989071641
C   C46       1.0  0.75880  0.04442  0.49010  1.0000 -0.2119741233
H   H28       1.0  0.74806  0.08997  0.51250  1.0000 0.1269531897
C   C47       1.0  0.81062  0.03032  0.40620  1.0000 0.1027216689
C   C48       1.0  0.85170  0.08824  0.36000  1.0000 0.1027216689
C   C49       1.0  0.85759  0.14632  0.44880  1.0000 -0.1782416178
H   H29       1.0  0.83515  0.15015  0.53733  1.0000 0.1216089779
C   C50       1.0  0.89681  0.19899  0.40670  1.0000 0.0709229132
H   H30       1.0  0.90034  0.23742  0.46942  1.0000 0.1027216689
C   C51       1.0  0.92365  0.14170  0.19530  1.0000 0.0820457465
H   H31       1.0  0.94582  0.13975  0.10608  1.0000 0.1027216689
C   C52       1.0  0.88614  0.08575  0.23020  1.0000 -0.1989071641
H   H32       1.0  0.88432  0.04729  0.16713  1.0000 0.1269531897
C   C53       1.0  0.82360  0.96191  0.37430  1.0000 -0.2168656847
H   H33       1.0  0.85732  0.95068  0.31557  1.0000 0.1269531897
C   C54       1.0  0.78601  0.90964  0.43040  1.0000 0.1866502987
C   C55       1.0  0.80263  0.83553  0.41320  1.0000 0.1216089779
C   C56       1.0  0.87017  0.75335  0.33900  1.0000 0.0102428451
H   H34       1.0  0.90590  0.74086  0.28940  1.0000 0.1216089779
C   C57       1.0  0.83689  0.70349  0.40370  1.0000 0.0226903336
H   H35       1.0  0.85091  0.65795  0.40074  1.0000 0.1093787311
C   C58       1.0  0.76816  0.78341  0.47460  1.0000 -0.0084818975
H   H36       1.0  0.73142  0.79503  0.52065  1.0000 0.1093787311
C   C59       1.0  0.49934  0.84741  0.94290  1.0000 -0.3658712691
C   C60       1.0  0.50125  0.81940  0.05770  1.0000 -0.1212588398
N   N21       1.0  0.42551  0.96631  0.75638  1.0000 -0.1782416178
C   C61       1.0  0.42959  0.02997  0.69830  1.0000 0.0226903336
H   H37       1.0  0.46198  0.04044  0.63449  1.0000 0.1216089779
N   N22       1.0  0.33849  0.06833  0.81510  1.0000 -0.2291765789
C   C62       1.0  0.38706  0.08076  0.73020  1.0000 0.0456717351
H   H38       1.0  0.39265  0.12504  0.69090  1.0000 0.1093787311
N   N23       1.0  0.26388  0.92293  0.98760  1.0000 -0.3100973329
C   C63       1.0  0.33230  0.00362  0.86850  1.0000 0.1216089779
N   N24       1.0  0.14559  0.82063  0.15760  1.0000 -0.2420871722
C   C64       1.0  0.37593  0.95354  0.84080  1.0000 -0.0084818975
H   H39       1.0  0.37081  0.90954  0.88186  1.0000 0.1093787311
N   N25       1.0  0.21532  0.71705  0.02830  1.0000 -0.1989071641
C   C65       1.0  0.27697  0.98943  0.95950  1.0000 0.1810956282
N   N26       1.0  0.07014  0.19752  0.21940  1.0000 -0.1989071641
C   C66       1.0  0.24120  0.04442  0.00990  1.0000 -0.2119741233
H   H40       1.0  0.25194  0.08997  0.98750  1.0000 0.1269531897
C   C67       1.0  0.18938  0.03032  0.09380  1.0000 0.1027216689
C   C68       1.0  0.14830  0.08824  0.14000  1.0000 0.1027216689
C   C69       1.0  0.14241  0.14632  0.05120  1.0000 -0.1782416178
H   H41       1.0  0.16485  0.15015  0.96267  1.0000 0.1216089779
C   C70       1.0  0.10319  0.19899  0.09330  1.0000 0.0820457465
H   H42       1.0  0.09966  0.23742  0.03058  1.0000 0.1093787311
C   C71       1.0  0.07635  0.14170  0.30470  1.0000 0.0820457465
H   H43       1.0  0.05418  0.13975  0.39392  1.0000 0.1027216689
C   C72       1.0  0.11386  0.08575  0.26980  1.0000 -0.1989071641
H   H44       1.0  0.11568  0.04729  0.33287  1.0000 0.1269531897
C   C73       1.0  0.17640  0.96191  0.12570  1.0000 -0.2168656847
H   H45       1.0  0.14268  0.95068  0.18443  1.0000 0.1269531897
C   C74       1.0  0.21399  0.90964  0.06960  1.0000 0.1866502987
C   C75       1.0  0.19737  0.83553  0.08680  1.0000 0.1216089779
C   C76       1.0  0.12983  0.75335  0.16100  1.0000 0.0102428451
H   H46       1.0  0.09410  0.74086  0.21060  1.0000 0.1216089779
C   C77       1.0  0.16311  0.70349  0.09630  1.0000 0.0294018445
H   H47       1.0  0.14910  0.65795  0.09926  1.0000 0.1093787311
C   C78       1.0  0.23184  0.78341  0.02540  1.0000 -0.0084818975
H   H48       1.0  0.26858  0.79503  0.97935  1.0000 0.1093787311
Cu  Cu1       1.0  0.00000  0.39167  0.75000  1.0000 0.3490104118
Cu  Cu2       1.0  0.50000  0.89167  0.75000  1.0000 0.3490104118
Cu  Cu3       1.0  0.00000  0.27354  0.25000  1.0000 0.2505334282
Cu  Cu4       1.0  0.50000  0.77354  0.25000  1.0000 0.2505334282
N   N27       1.0  0.49934  0.15259  0.44290  1.0000 -0.3601722679
C   C79       1.0  0.50125  0.18060  0.55770  1.0000 -0.324666305
N   N28       1.0  0.42551  0.03369  0.25638  1.0000 -0.1747479363
C   C80       1.0  0.42959  0.97003  0.19830  1.0000 0.0226903336
H   H49       1.0  0.46198  0.95956  0.13449  1.0000 0.1093787311
N   N29       1.0  0.33849  0.93167  0.31510  1.0000 -0.2291765789
C   C81       1.0  0.38706  0.91924  0.23020  1.0000 0.0449072273
H   H50       1.0  0.39265  0.87496  0.19090  1.0000 0.1093787311
N   N30       1.0  0.26388  0.07707  0.48760  1.0000 -0.3100973329
C   C82       1.0  0.33230  0.99638  0.36850  1.0000 0.1216089779
N   N31       1.0  0.14559  0.17937  0.65760  1.0000 -0.2420871722
C   C83       1.0  0.37593  0.04646  0.34080  1.0000 -0.0084818975
H   H51       1.0  0.37081  0.09046  0.38186  1.0000 0.1093787311
N   N32       1.0  0.21532  0.28295  0.52830  1.0000 -0.1989071641
C   C84       1.0  0.27697  0.01057  0.45950  1.0000 0.1810956282
N   N33       1.0  0.07014  0.80248  0.71940  1.0000 -0.1989071641
C   C85       1.0  0.24120  0.95558  0.50990  1.0000 -0.2119741233
H   H52       1.0  0.25194  0.91003  0.48750  1.0000 0.1269531897
C   C86       1.0  0.18938  0.96968  0.59380  1.0000 0.1027216689
C   C87       1.0  0.14830  0.91176  0.64000  1.0000 0.1027216689
C   C88       1.0  0.14241  0.85368  0.55120  1.0000 -0.1782416178
H   H53       1.0  0.16485  0.84985  0.46267  1.0000 0.1216089779
C   C89       1.0  0.10319  0.80101  0.59330  1.0000 0.0709229132
H   H54       1.0  0.09966  0.76258  0.53058  1.0000 0.1027216689
C   C90       1.0  0.07635  0.85830  0.80470  1.0000 0.0820457465
H   H55       1.0  0.05418  0.86025  0.89392  1.0000 0.1027216689
C   C91       1.0  0.11386  0.91425  0.76980  1.0000 -0.1989071641
H   H56       1.0  0.11568  0.95270  0.83287  1.0000 0.1269531897
C   C92       1.0  0.17640  0.03809  0.62570  1.0000 -0.2168656847
H   H57       1.0  0.14268  0.04932  0.68443  1.0000 0.1269531897
C   C93       1.0  0.21399  0.09036  0.56960  1.0000 0.1866502987
C   C94       1.0  0.19737  0.16447  0.58680  1.0000 0.1216089779
C   C95       1.0  0.12983  0.24665  0.66100  1.0000 0.0102428451
H   H58       1.0  0.09410  0.25914  0.71060  1.0000 0.1216089779
C   C96       1.0  0.16311  0.29651  0.59630  1.0000 0.0226903336
H   H59       1.0  0.14910  0.34205  0.59926  1.0000 0.1093787311
C   C97       1.0  0.23184  0.21659  0.52540  1.0000 -0.0084818975
H   H60       1.0  0.26858  0.20497  0.47935  1.0000 0.1093787311
C   C98       1.0  0.50066  0.15259  0.05710  1.0000 -0.3658712691
C   C99       1.0  0.49875  0.18060  0.94230  1.0000 -0.1212588398
N   N34       1.0  0.57449  0.03369  0.24362  1.0000 -0.1782416178
C   C100      1.0  0.57041  0.97003  0.30170  1.0000 0.0226903336
H   H61       1.0  0.53802  0.95956  0.36551  1.0000 0.1216089779
N   N35       1.0  0.66151  0.93167  0.18490  1.0000 -0.2291765789
C   C101      1.0  0.61294  0.91924  0.26980  1.0000 0.0456717351
H   H62       1.0  0.60735  0.87496  0.30910  1.0000 0.1093787311
N   N36       1.0  0.73612  0.07707  0.01240  1.0000 -0.3100973329
C   C102      1.0  0.66770  0.99638  0.13150  1.0000 0.1216089779
N   N37       1.0  0.85441  0.17937  0.84240  1.0000 -0.2420871722
C   C103      1.0  0.62407  0.04646  0.15920  1.0000 -0.0084818975
H   H63       1.0  0.62919  0.09046  0.11814  1.0000 0.1093787311
N   N38       1.0  0.78468  0.28295  0.97170  1.0000 -0.1989071641
C   C104      1.0  0.72303  0.01057  0.04050  1.0000 0.1810956282
N   N39       1.0  0.92986  0.80248  0.78060  1.0000 -0.1989071641
C   C105      1.0  0.75880  0.95558  0.99010  1.0000 -0.2119741233
H   H64       1.0  0.74806  0.91003  0.01250  1.0000 0.1269531897
C   C106      1.0  0.81062  0.96968  0.90620  1.0000 0.1027216689
C   C107      1.0  0.85170  0.91176  0.86000  1.0000 0.1027216689
C   C108      1.0  0.85759  0.85368  0.94880  1.0000 -0.1782416178
H   H65       1.0  0.83515  0.84985  0.03733  1.0000 0.1216089779
C   C109      1.0  0.89681  0.80101  0.90670  1.0000 0.0820457465
H   H66       1.0  0.90034  0.76258  0.96942  1.0000 0.1093787311
C   C110      1.0  0.92365  0.85830  0.69530  1.0000 0.0820457465
H   H67       1.0  0.94582  0.86025  0.60608  1.0000 0.1027216689
C   C111      1.0  0.88614  0.91425  0.73020  1.0000 -0.1989071641
H   H68       1.0  0.88432  0.95270  0.66713  1.0000 0.1269531897
C   C112      1.0  0.82360  0.03809  0.87430  1.0000 -0.2168656847
H   H69       1.0  0.85732  0.04932  0.81557  1.0000 0.1269531897
C   C113      1.0  0.78601  0.09036  0.93040  1.0000 0.1866502987
C   C114      1.0  0.80263  0.16447  0.91320  1.0000 0.1216089779
C   C115      1.0  0.87017  0.24665  0.83900  1.0000 0.0102428451
H   H70       1.0  0.90590  0.25914  0.78940  1.0000 0.1216089779
C   C116      1.0  0.83689  0.29651  0.90370  1.0000 0.0294018445
H   H71       1.0  0.85091  0.34205  0.90074  1.0000 0.1093787311
C   C117      1.0  0.76816  0.21659  0.97460  1.0000 -0.0084818975
H   H72       1.0  0.73142  0.20497  0.02065  1.0000 0.1093787311
N   N40       1.0  0.99934  0.65259  0.05710  1.0000 -0.3601722679
C   C118      1.0  0.00125  0.68060  0.94230  1.0000 -0.324666305
N   N41       1.0  0.92551  0.53369  0.24362  1.0000 -0.1747479363
C   C119      1.0  0.92959  0.47003  0.30170  1.0000 0.0226903336
H   H73       1.0  0.96198  0.45956  0.36551  1.0000 0.1093787311
N   N42       1.0  0.83849  0.43167  0.18490  1.0000 -0.2291765789
C   C120      1.0  0.88706  0.41924  0.26980  1.0000 0.0449072273
H   H74       1.0  0.89265  0.37496  0.30910  1.0000 0.1093787311
N   N43       1.0  0.76388  0.57707  0.01240  1.0000 -0.3100973329
C   C121      1.0  0.83230  0.49638  0.13150  1.0000 0.1216089779
N   N44       1.0  0.64559  0.67937  0.84240  1.0000 -0.2420871722
C   C122      1.0  0.87593  0.54646  0.15920  1.0000 -0.0084818975
H   H75       1.0  0.87081  0.59046  0.11814  1.0000 0.1093787311
N   N45       1.0  0.71532  0.78295  0.97170  1.0000 -0.1989071641
C   C123      1.0  0.77697  0.51057  0.04050  1.0000 0.1810956282
N   N46       1.0  0.57014  0.30248  0.78060  1.0000 -0.1989071641
C   C124      1.0  0.74120  0.45558  0.99010  1.0000 -0.2119741233
H   H76       1.0  0.75194  0.41003  0.01250  1.0000 0.1269531897
C   C125      1.0  0.68938  0.46968  0.90620  1.0000 0.1027216689
C   C126      1.0  0.64830  0.41176  0.86000  1.0000 0.1027216689
C   C127      1.0  0.64241  0.35368  0.94880  1.0000 -0.1782416178
H   H77       1.0  0.66485  0.34985  0.03733  1.0000 0.1216089779
C   C128      1.0  0.60319  0.30101  0.90670  1.0000 0.0709229132
H   H78       1.0  0.59966  0.26258  0.96942  1.0000 0.1027216689
C   C129      1.0  0.57635  0.35830  0.69530  1.0000 0.0820457465
H   H79       1.0  0.55418  0.36025  0.60608  1.0000 0.1027216689
C   C130      1.0  0.61386  0.41425  0.73020  1.0000 -0.1989071641
H   H80       1.0  0.61568  0.45271  0.66713  1.0000 0.1269531897
C   C131      1.0  0.67640  0.53809  0.87430  1.0000 -0.2168656847
H   H81       1.0  0.64268  0.54932  0.81557  1.0000 0.1269531897
C   C132      1.0  0.71399  0.59036  0.93040  1.0000 0.1866502987
C   C133      1.0  0.69737  0.66447  0.91320  1.0000 0.1216089779
C   C134      1.0  0.62983  0.74665  0.83900  1.0000 0.0102428451
H   H82       1.0  0.59410  0.75914  0.78940  1.0000 0.1216089779
C   C135      1.0  0.66311  0.79651  0.90370  1.0000 0.0226903336
H   H83       1.0  0.64909  0.84205  0.90074  1.0000 0.1093787311
C   C136      1.0  0.73184  0.71659  0.97460  1.0000 -0.0084818975
H   H84       1.0  0.76858  0.70497  0.02065  1.0000 0.1093787311
C   C137      1.0  0.00066  0.65259  0.44290  1.0000 -0.3658712691
C   C138      1.0  0.99875  0.68060  0.55770  1.0000 -0.1212588398
N   N47       1.0  0.07449  0.53369  0.25638  1.0000 -0.1782416178
C   C139      1.0  0.07041  0.47003  0.19830  1.0000 0.0226903336
H   H85       1.0  0.03802  0.45956  0.13449  1.0000 0.1216089779
N   N48       1.0  0.16151  0.43167  0.31510  1.0000 -0.2291765789
C   C140      1.0  0.11294  0.41924  0.23020  1.0000 0.0456717351
H   H86       1.0  0.10735  0.37496  0.19090  1.0000 0.1093787311
N   N49       1.0  0.23612  0.57707  0.48760  1.0000 -0.3100973329
C   C141      1.0  0.16770  0.49638  0.36850  1.0000 0.1216089779
N   N50       1.0  0.35441  0.67937  0.65760  1.0000 -0.2420871722
C   C142      1.0  0.12407  0.54646  0.34080  1.0000 -0.0084818975
H   H87       1.0  0.12919  0.59046  0.38186  1.0000 0.1093787311
N   N51       1.0  0.28468  0.78295  0.52830  1.0000 -0.1989071641
C   C143      1.0  0.22303  0.51057  0.45950  1.0000 0.1810956282
N   N52       1.0  0.42986  0.30248  0.71940  1.0000 -0.1989071641
C   C144      1.0  0.25880  0.45558  0.50990  1.0000 -0.2119741233
H   H88       1.0  0.24806  0.41003  0.48750  1.0000 0.1269531897
C   C145      1.0  0.31062  0.46968  0.59380  1.0000 0.1027216689
C   C146      1.0  0.35170  0.41176  0.64000  1.0000 0.1027216689
C   C147      1.0  0.35759  0.35368  0.55120  1.0000 -0.1782416178
H   H89       1.0  0.33515  0.34985  0.46267  1.0000 0.1216089779
C   C148      1.0  0.39681  0.30101  0.59330  1.0000 0.0820457465
H   H90       1.0  0.40034  0.26258  0.53058  1.0000 0.1093787311
C   C149      1.0  0.42365  0.35830  0.80470  1.0000 0.0820457465
H   H91       1.0  0.44582  0.36025  0.89392  1.0000 0.1027216689
C   C150      1.0  0.38614  0.41425  0.76980  1.0000 -0.1989071641
H   H92       1.0  0.38432  0.45271  0.83287  1.0000 0.1269531897
C   C151      1.0  0.32360  0.53809  0.62570  1.0000 -0.2168656847
H   H93       1.0  0.35732  0.54932  0.68443  1.0000 0.1269531897
C   C152      1.0  0.28601  0.59036  0.56960  1.0000 0.1866502987
C   C153      1.0  0.30263  0.66447  0.58680  1.0000 0.1216089779
C   C154      1.0  0.37017  0.74665  0.66100  1.0000 0.0102428451
H   H94       1.0  0.40590  0.75914  0.71060  1.0000 0.1216089779
C   C155      1.0  0.33689  0.79651  0.59630  1.0000 0.0294018445
H   H95       1.0  0.35091  0.84205  0.59926  1.0000 0.1093787311
C   C156      1.0  0.26816  0.71659  0.52540  1.0000 -0.0084818975
H   H96       1.0  0.23142  0.70497  0.47935  1.0000 0.1093787311
Cu  Cu5       1.0  0.50000  0.10833  0.25000  1.0000 0.3490104118
Cu  Cu6       1.0  0.00000  0.60833  0.25000  1.0000 0.3490104118
Cu  Cu7       1.0  0.50000  0.22646  0.75000  1.0000 0.2505334282
Cu  Cu8       1.0  0.00000  0.72646  0.75000  1.0000 0.2505334282
  C   C157      1.0  0.00066  0.34741  0.94290  1.0000
  N   N53       1.0  0.99934  0.34741  0.55710  1.0000
  C   C158      1.0  0.50066  0.84741  0.55710  1.0000
  N   N54       1.0  0.49934  0.84741  0.94290  1.0000
  C   C159      1.0  0.49934  0.15259  0.44290  1.0000
  N   N55       1.0  0.50066  0.15259  0.05710  1.0000
  C   C160      1.0  0.99934  0.65259  0.05710  1.0000
  N   N56       1.0  0.00066  0.65259  0.44290  1.0000
