# DDEC6 charges by PACMAN v1.1 (https://github.com/mtap-research/PACMAN-charge/)
data_YUNJUO_ASR_pacman
_symmetry_space_group_name_H-M   'P 1'
_cell_length_a   5.18120000
_cell_length_b   10.74200000
_cell_length_c   15.12240000
_cell_angle_alpha   82.46600000
_cell_angle_beta   84.92800000
_cell_angle_gamma   82.69100000
_symmetry_Int_Tables_number   1
_chemical_formula_structural   CaH20(C17O4)2
_chemical_formula_sum   'Ca1 H20 C34 O8'
_cell_volume   825.40861600
_cell_formula_units_Z   1
loop_
 _symmetry_equiv_pos_site_id
 _symmetry_equiv_pos_as_xyz
  1  'x, y, z'
loop_
 _atom_site_type_symbol
 _atom_site_label
 _atom_site_symmetry_multiplicity
 _atom_site_fract_x
 _atom_site_fract_y
 _atom_site_fract_z
 _atom_site_occupancy
 _atom_site_charge
Ca  Ca1  1  0.00000000  0.00000000  0.00000000  1.0 1.3942938785
H  H1  1  0.97180000  0.71930000  0.47550000  1.0 0.1213249359
H  H2  1  0.02820000  0.28070000  0.52450000  1.0 0.1213249359
H  H3  1  0.50850000  0.25890000  0.60680000  1.0 0.1213249359
H  H4  1  0.49150000  0.74110000  0.39320000  1.0 0.1213249359
H  H5  1  0.66360000  0.15350000  0.74020000  1.0 0.1213249359
H  H6  1  0.33640000  0.84650000  0.25980000  1.0 0.1213249359
H  H7  1  0.03370000  0.31780000  0.87930000  1.0 0.1213249359
H  H8  1  0.96630000  0.68220000  0.12070000  1.0 0.1213249359
H  H9  1  0.89460000  0.43350000  0.74650000  1.0 0.1120314322
H  H10  1  0.10540000  0.56650000  0.25350000  1.0 0.1120314322
H  H11  1  0.51340000  0.53210000  0.65580000  1.0 0.1120314322
H  H12  1  0.48660000  0.46790000  0.34420000  1.0 0.1120314322
H  H13  1  0.62300000  0.63950000  0.76940000  1.0 0.1120314322
H  H14  1  0.37700000  0.36050000  0.23060000  1.0 0.1120314322
H  H15  1  0.97450000  0.89100000  0.73380000  1.0 0.1213249359
H  H16  1  0.02550000  0.10900000  0.26620000  1.0 0.1213249359
H  H17  1  0.87100000  0.78470000  0.61910000  1.0 0.1120314322
H  H18  1  0.12900000  0.21530000  0.38090000  1.0 0.1120314322
H  H19  1  0.60540000  0.83560000  0.91620000  1.0 0.3718299161
H  H20  1  0.39460000  0.16440000  0.08380000  1.0 0.3718299161
C  C1  1  0.98420000  0.62970000  0.48541000  1.0 -0.1942320724
C  C2  1  0.01580000  0.37030000  0.51459000  1.0 -0.1942320724
C  C3  1  0.08570000  0.56730000  0.56424000  1.0 0.0265774693
C  C4  1  0.91430000  0.43270000  0.43576000  1.0 0.0265774693
C  C5  1  0.09970000  0.43480000  0.57933000  1.0 0.0265774693
C  C6  1  0.90030000  0.56520000  0.42067000  1.0 0.0265774693
C  C7  1  0.18970000  0.35980000  0.66371000  1.0 0.0685300271
C  C8  1  0.81030000  0.64020000  0.33629000  1.0 0.0685300271
C  C9  1  0.41600000  0.27360000  0.66223000  1.0 -0.1552069445
C  C10  1  0.58400000  0.72640000  0.33777000  1.0 -0.1552069445
C  C11  1  0.50600000  0.20930000  0.74146000  1.0 -0.097395349
C  C12  1  0.49400000  0.79070000  0.25854000  1.0 -0.097395349
C  C13  1  0.13370000  0.30830000  0.82434000  1.0 -0.0846470331
C  C14  1  0.86630000  0.69170000  0.17566000  1.0 -0.0846470331
C  C15  1  0.04960000  0.37580000  0.74507000  1.0 -0.1394249757
C  C16  1  0.95040000  0.62420000  0.25493000  1.0 -0.1394249757
C  C17  1  0.36600000  0.22640000  0.82281000  1.0 -0.0325671878
C  C18  1  0.63400000  0.77360000  0.17719000  1.0 -0.0325671878
C  C19  1  0.46740000  0.16010000  0.90891000  1.0 0.6135365705
C  C20  1  0.53260000  0.83990000  0.09109000  1.0 0.6135365705
C  C21  1  0.17340000  0.64310000  0.63030000  1.0 0.0768451023
C  C22  1  0.82660000  0.35690000  0.36970000  1.0 0.0768451023
C  C23  1  0.40160000  0.60350000  0.67280000  1.0 -0.1504856606
C  C24  1  0.59840000  0.39650000  0.32720000  1.0 -0.1504856606
C  C25  1  0.46760000  0.66770000  0.74000000  1.0 -0.1071378772
C  C26  1  0.53240000  0.33230000  0.26000000  1.0 -0.1071378772
C  C27  1  0.30540000  0.77380000  0.76433000  1.0 -0.0408288834
C  C28  1  0.69460000  0.22620000  0.23567000  1.0 -0.0408288834
C  C29  1  0.08280000  0.81750000  0.71869000  1.0 -0.0879303475
C  C30  1  0.91720000  0.18250000  0.28131000  1.0 -0.0879303475
C  C31  1  0.01980000  0.75340000  0.65131000  1.0 -0.1504856606
C  C32  1  0.98020000  0.24660000  0.34869000  1.0 -0.1504856606
C  C33  1  0.35910000  0.83540000  0.84231000  1.0 0.5784921388
C  C34  1  0.64090000  0.16460000  0.15769000  1.0 0.5784921388
O  O1  1  0.30050000  0.14812000  0.97672000  1.0 -0.6610639353
O  O2  1  0.69950000  0.85188000  0.02328000  1.0 -0.6610639353
O  O3  1  0.70370000  0.12330000  0.91043000  1.0 -0.6085516472
O  O4  1  0.29630000  0.87670000  0.08957000  1.0 -0.6085516472
O  O5  1  0.19840000  0.91430000  0.87453000  1.0 -0.5686013956
O  O6  1  0.80160000  0.08570000  0.12547000  1.0 -0.5686013956
O  O7  1  0.58720000  0.79740000  0.87251000  1.0 -0.4357270707
O  O8  1  0.41280000  0.20260000  0.12749000  1.0 -0.4357270707
