# DDEC6 charges by PACMAN v1.1 (https://github.com/mtap-research/PACMAN-charge/)
data_YUNJIC_FSR_pacman
_symmetry_space_group_name_H-M   'P 1'
_cell_length_a   5.15940000
_cell_length_b   11.02740000
_cell_length_c   15.27400000
_cell_angle_alpha   83.31000000
_cell_angle_beta   87.65700000
_cell_angle_gamma   83.12800000
_symmetry_Int_Tables_number   1
_chemical_formula_structural   CaH20(C17O4)2
_chemical_formula_sum   'Ca1 H20 C34 O8'
_cell_volume   856.57313367
_cell_formula_units_Z   1
loop_
 _symmetry_equiv_pos_site_id
 _symmetry_equiv_pos_as_xyz
  1  'x, y, z'
loop_
 _atom_site_type_symbol
 _atom_site_label
 _atom_site_symmetry_multiplicity
 _atom_site_fract_x
 _atom_site_fract_y
 _atom_site_fract_z
 _atom_site_occupancy
 _atom_site_charge
Ca  Ca1  1  0.00000000  0.00000000  0.00000000  1.0 1.3958772372
H  H1  1  0.96460000  0.71080000  0.48420000  1.0 0.1198824036
H  H2  1  0.03540000  0.28920000  0.51580000  1.0 0.1198824036
H  H3  1  0.49940000  0.26050000  0.60750000  1.0 0.1116529728
H  H4  1  0.50060000  0.73950000  0.39250000  1.0 0.1116529728
H  H5  1  0.65160000  0.15160000  0.73730000  1.0 0.1198824036
H  H6  1  0.34840000  0.84840000  0.26270000  1.0 0.1198824036
H  H7  1  0.03490000  0.30400000  0.86900000  1.0 0.1198824036
H  H8  1  0.96510000  0.69600000  0.13100000  1.0 0.1198824036
H  H9  1  0.89690000  0.42070000  0.74140000  1.0 0.1116529728
H  H10  1  0.10310000  0.57930000  0.25860000  1.0 0.1116529728
H  H11  1  0.49730000  0.52900000  0.66890000  1.0 0.1116529728
H  H12  1  0.50270000  0.47100000  0.33110000  1.0 0.1116529728
H  H13  1  0.60210000  0.63210000  0.78280000  1.0 0.1116529728
H  H14  1  0.39790000  0.36790000  0.21720000  1.0 0.1116529728
H  H15  1  0.95240000  0.86760000  0.74390000  1.0 0.1198824036
H  H16  1  0.04760000  0.13240000  0.25610000  1.0 0.1198824036
H  H17  1  0.85020000  0.76510000  0.62940000  1.0 0.1116529728
H  H18  1  0.14980000  0.23490000  0.37060000  1.0 0.1116529728
H  H19  1  0.58690000  0.82180000  0.92960000  1.0 0.3674020867
H  H20  1  0.41310000  0.17820000  0.07040000  1.0 0.3674020867
C  C1  1  0.97950000  0.62540000  0.49055000  1.0 -0.1884016146
C  C2  1  0.02050000  0.37460000  0.50945000  1.0 -0.1884016146
C  C3  1  0.07720000  0.56208000  0.56894000  1.0 0.026906321
C  C4  1  0.92280000  0.43792000  0.43106000  1.0 0.026906321
C  C5  1  0.09660000  0.43266000  0.57848000  1.0 0.026906321
C  C6  1  0.90340000  0.56734000  0.42152000  1.0 0.026906321
C  C7  1  0.18500000  0.35600000  0.66135000  1.0 0.0677491228
C  C8  1  0.81500000  0.64400000  0.33865000  1.0 0.0677491228
C  C9  1  0.40920000  0.27190000  0.66040000  1.0 -0.1563693036
C  C10  1  0.59080000  0.72810000  0.33960000  1.0 -0.1563693036
C  C11  1  0.49800000  0.20500000  0.73822000  1.0 -0.1005995304
C  C12  1  0.50200000  0.79500000  0.26178000  1.0 -0.1005995304
C  C13  1  0.36110000  0.21700000  0.81700000  1.0 -0.0366725897
C  C14  1  0.63890000  0.78300000  0.18300000  1.0 -0.0366725897
C  C15  1  0.13240000  0.29700000  0.81692000  1.0 -0.0862494309
C  C16  1  0.86760000  0.70300000  0.18308000  1.0 -0.0862494309
C  C17  1  0.04860000  0.36610000  0.74008000  1.0 -0.1405050506
C  C18  1  0.95140000  0.63390000  0.25992000  1.0 -0.1405050506
C  C19  1  0.46450000  0.15020000  0.90198000  1.0 0.6127403925
C  C20  1  0.53550000  0.84980000  0.09802000  1.0 0.6127403925
C  C21  1  0.15730000  0.63353000  0.63892000  1.0 0.0769057746
C  C22  1  0.84270000  0.36647000  0.36108000  1.0 0.0769057746
C  C23  1  0.38580000  0.59620000  0.68448000  1.0 -0.1496485372
C  C24  1  0.61420000  0.40380000  0.31552000  1.0 -0.1496485372
C  C25  1  0.44870000  0.65820000  0.75268000  1.0 -0.1005995304
C  C26  1  0.55130000  0.34180000  0.24732000  1.0 -0.1005995304
C  C27  1  0.28550000  0.75895000  0.77679000  1.0 -0.0472466585
C  C28  1  0.71450000  0.24105000  0.22321000  1.0 -0.0472466585
C  C29  1  0.06140000  0.79890000  0.72950000  1.0 -0.0862494309
C  C30  1  0.93860000  0.20110000  0.27050000  1.0 -0.0862494309
C  C31  1  0.99980000  0.73700000  0.66113000  1.0 -0.1496485372
C  C32  1  0.00020000  0.26300000  0.33887000  1.0 -0.1496485372
C  C33  1  0.33870000  0.82060000  0.85421000  1.0 0.5741972874
C  C34  1  0.66130000  0.17940000  0.14579000  1.0 0.5741972874
O  O1  1  0.30480000  0.14197000  0.96794000  1.0 -0.6505851199
O  O2  1  0.69520000  0.85803000  0.03206000  1.0 -0.6505851199
O  O3  1  0.69830000  0.10958000  0.90423000  1.0 -0.6032257129
O  O4  1  0.30170000  0.89042000  0.09577000  1.0 -0.6032257129
O  O5  1  0.18180000  0.89816000  0.88325000  1.0 -0.5565484812
O  O6  1  0.81820000  0.10184000  0.11675000  1.0 -0.5565484812
O  O7  1  0.56860000  0.78465000  0.88719000  1.0 -0.4359908749
O  O8  1  0.43140000  0.21535000  0.11281000  1.0 -0.4359908749
