# DDEC6 charges by PACMAN v1.1 (https://github.com/mtap-research/PACMAN-charge/)
data_YUNKAV_FSR_pacman
_symmetry_space_group_name_H-M   'P 1'
_cell_length_a   5.11610000
_cell_length_b   10.82390000
_cell_length_c   15.25980000
_cell_angle_alpha   82.99000000
_cell_angle_beta   85.88500000
_cell_angle_gamma   83.05000000
_symmetry_Int_Tables_number   1
_chemical_formula_structural   CaH20(C17O4)2
_chemical_formula_sum   'Ca1 H20 C34 O8'
_cell_volume   831.15553269
_cell_formula_units_Z   1
loop_
 _symmetry_equiv_pos_site_id
 _symmetry_equiv_pos_as_xyz
  1  'x, y, z'
loop_
 _atom_site_type_symbol
 _atom_site_label
 _atom_site_symmetry_multiplicity
 _atom_site_fract_x
 _atom_site_fract_y
 _atom_site_fract_z
 _atom_site_occupancy
 _atom_site_charge
Ca  Ca1  1  0.00000000  0.00000000  0.00000000  1.0 1.3950117219
H  H1  1  0.97080000  0.71770000  0.48130000  1.0 0.1199908915
H  H2  1  0.02920000  0.28230000  0.51870000  1.0 0.1199908915
H  H3  1  0.50250000  0.25400000  0.60430000  1.0 0.1199908915
H  H4  1  0.49750000  0.74600000  0.39570000  1.0 0.1199908915
H  H5  1  0.65860000  0.14620000  0.73640000  1.0 0.1199908915
H  H6  1  0.34140000  0.85380000  0.26360000  1.0 0.1199908915
H  H7  1  0.03250000  0.31130000  0.87370000  1.0 0.1199908915
H  H8  1  0.96750000  0.68870000  0.12630000  1.0 0.1199908915
H  H9  1  0.89150000  0.42860000  0.74330000  1.0 0.1127533705
H  H10  1  0.10850000  0.57140000  0.25670000  1.0 0.1127533705
H  H11  1  0.51000000  0.52510000  0.66210000  1.0 0.1127533705
H  H12  1  0.49000000  0.47490000  0.33790000  1.0 0.1127533705
H  H13  1  0.61960000  0.62770000  0.77760000  1.0 0.1127533705
H  H14  1  0.38040000  0.37230000  0.22240000  1.0 0.1127533705
H  H15  1  0.97050000  0.88010000  0.74160000  1.0 0.1251839537
H  H16  1  0.02950000  0.11990000  0.25840000  1.0 0.1251839537
H  H17  1  0.86250000  0.77730000  0.62520000  1.0 0.1127533705
H  H18  1  0.13750000  0.22270000  0.37480000  1.0 0.1127533705
H  H19  1  0.60040000  0.81700000  0.92840000  1.0 0.3700613964
H  H20  1  0.39960000  0.18300000  0.07160000  1.0 0.3700613964
C  C1  1  0.98340000  0.62876000  0.48889000  1.0 -0.1941461575
C  C2  1  0.01660000  0.37124000  0.51111000  1.0 -0.1941461575
C  C3  1  0.08230000  0.56412000  0.56694000  1.0 0.0281628759
C  C4  1  0.91770000  0.43588000  0.43306000  1.0 0.0281628759
C  C5  1  0.09730000  0.43225000  0.57818000  1.0 0.0281628759
C  C6  1  0.90270000  0.56775000  0.42182000  1.0 0.0281628759
C  C7  1  0.18580000  0.35482000  0.66115000  1.0 0.0705617505
C  C8  1  0.81420000  0.64518000  0.33885000  1.0 0.0705617505
C  C9  1  0.41090000  0.26833000  0.65918000  1.0 -0.15775177
C  C10  1  0.58910000  0.73167000  0.34082000  1.0 -0.15775177
C  C11  1  0.50170000  0.20282000  0.73773000  1.0 -0.0976350543
C  C12  1  0.49830000  0.79718000  0.26227000  1.0 -0.0976350543
C  C13  1  0.36350000  0.22007000  0.81785000  1.0 -0.0313365751
C  C14  1  0.63650000  0.77993000  0.18215000  1.0 -0.0313365751
C  C15  1  0.13200000  0.30211000  0.81946000  1.0 -0.0885310967
C  C16  1  0.86800000  0.69789000  0.18054000  1.0 -0.0885310967
C  C17  1  0.04630000  0.37062000  0.74161000  1.0 -0.1406455946
C  C18  1  0.95370000  0.62938000  0.25839000  1.0 -0.1406455946
C  C19  1  0.46740000  0.15452000  0.90324000  1.0 0.6156806338
C  C20  1  0.53260000  0.84548000  0.09676000  1.0 0.6156806338
C  C21  1  0.16840000  0.63697000  0.63547000  1.0 0.0768467177
C  C22  1  0.83160000  0.36303000  0.36453000  1.0 0.0768467177
C  C23  1  0.39790000  0.59565000  0.67927000  1.0 -0.1520073649
C  C24  1  0.60210000  0.40435000  0.32073000  1.0 -0.1520073649
C  C25  1  0.46350000  0.65680000  0.74765000  1.0 -0.1072330487
C  C26  1  0.53650000  0.34320000  0.25235000  1.0 -0.1072330487
C  C27  1  0.30080000  0.76137000  0.77277000  1.0 -0.0388740722
C  C28  1  0.69920000  0.23863000  0.22723000  1.0 -0.0388740722
C  C29  1  0.07790000  0.80704000  0.72628000  1.0 -0.0885310967
C  C30  1  0.92210000  0.19296000  0.27372000  1.0 -0.0885310967
C  C31  1  0.01300000  0.74548000  0.65744000  1.0 -0.1520073649
C  C32  1  0.98700000  0.25452000  0.34256000  1.0 -0.1520073649
C  C33  1  0.35480000  0.82222000  0.85110000  1.0 0.5781890738
C  C34  1  0.64520000  0.17778000  0.14890000  1.0 0.5781890738
O  O1  1  0.30340000  0.14723000  0.97079000  1.0 -0.6587719333
O  O2  1  0.69660000  0.85277000  0.02921000  1.0 -0.6587719333
O  O3  1  0.70470000  0.11340000  0.90431000  1.0 -0.6096101415
O  O4  1  0.29530000  0.88660000  0.09569000  1.0 -0.6096101415
O  O5  1  0.19780000  0.90318000  0.88093000  1.0 -0.5649111879
O  O6  1  0.80220000  0.09682000  0.11907000  1.0 -0.5650881541
O  O7  1  0.58100000  0.77941000  0.88467000  1.0 -0.4392512452
O  O8  1  0.41900000  0.22059000  0.11533000  1.0 -0.4392512452
