# DDEC6 charges by PACMAN v1.1 (https://github.com/mtap-research/PACMAN-charge/)
data_YUTJAA_ASR_pacman
_symmetry_space_group_name_H-M   'P 1'
_cell_length_a   17.46800000
_cell_length_b   6.04890000
_cell_length_c   18.81440000
_cell_angle_alpha   90.00000000
_cell_angle_beta   118.08600000
_cell_angle_gamma   90.00000000
_symmetry_Int_Tables_number   1
_chemical_formula_structural   ZnH22C30(NO)4
_chemical_formula_sum   'Zn2 H44 C60 N8 O8'
_cell_volume   1753.87103332
_cell_formula_units_Z   2
loop_
 _symmetry_equiv_pos_site_id
 _symmetry_equiv_pos_as_xyz
  1  'x, y, z'
loop_
 _atom_site_type_symbol
 _atom_site_label
 _atom_site_symmetry_multiplicity
 _atom_site_fract_x
 _atom_site_fract_y
 _atom_site_fract_z
 _atom_site_occupancy
 _atom_site_charge
Zn  Zn1  1  0.00000000  0.19274000  0.75000000  1.0 0.7554306646
Zn  Zn2  1  0.00000000  0.80726000  0.25000000  1.0 0.7554306646
H  H1  1  0.14470000  0.21500000  0.69260000  1.0 0.1311453601
H  H2  1  0.85530000  0.21500000  0.80740000  1.0 0.1311453601
H  H3  1  0.85530000  0.78500000  0.30740000  1.0 0.1311453601
H  H4  1  0.14470000  0.78500000  0.19260000  1.0 0.1311453601
H  H5  1  0.15090000  0.49230000  0.60090000  1.0 0.1311453601
H  H6  1  0.84910000  0.49230000  0.89910000  1.0 0.1311453601
H  H7  1  0.84910000  0.50770000  0.39910000  1.0 0.1311453601
H  H8  1  0.15090000  0.50770000  0.10090000  1.0 0.1311453601
H  H9  1  0.95350000  0.62570000  0.64160000  1.0 0.1311453601
H  H10  1  0.04650000  0.62570000  0.85840000  1.0 0.1311453601
H  H11  1  0.04650000  0.37430000  0.35840000  1.0 0.1311453601
H  H12  1  0.95350000  0.37430000  0.14160000  1.0 0.1311453601
H  H13  1  0.12270000  0.79740000  0.52840000  1.0 0.1311453601
H  H14  1  0.87730000  0.79740000  0.97160000  1.0 0.1311453601
H  H15  1  0.87730000  0.20260000  0.47160000  1.0 0.1311453601
H  H16  1  0.12270000  0.20260000  0.02840000  1.0 0.1311453601
H  H17  1  0.91320000  0.90030000  0.55600000  1.0 0.1311453601
H  H18  1  0.08680000  0.90030000  0.94400000  1.0 0.1311453601
H  H19  1  0.08680000  0.09970000  0.44400000  1.0 0.1311453601
H  H20  1  0.91320000  0.09970000  0.05600000  1.0 0.1311453601
H  H21  1  0.67920000  0.13220000  0.52450000  1.0 0.1311453601
H  H22  1  0.32080000  0.13220000  0.97550000  1.0 0.1311453601
H  H23  1  0.32080000  0.86780000  0.47550000  1.0 0.1311453601
H  H24  1  0.67920000  0.86780000  0.02450000  1.0 0.1311453601
H  H25  1  0.55770000  0.91410000  0.47230000  1.0 0.1311453601
H  H26  1  0.44230000  0.91410000  0.02770000  1.0 0.1311453601
H  H27  1  0.44230000  0.08590000  0.52770000  1.0 0.1311453601
H  H28  1  0.55770000  0.08590000  0.97230000  1.0 0.1311453601
H  H29  1  0.68100000  0.46350000  0.63720000  1.0 0.1200304364
H  H30  1  0.31900000  0.46350000  0.86280000  1.0 0.1200304364
H  H31  1  0.31900000  0.53650000  0.36280000  1.0 0.1200304364
H  H32  1  0.68100000  0.53650000  0.13720000  1.0 0.1200304364
H  H33  1  0.80580000  0.67050000  0.68830000  1.0 0.110016301
H  H34  1  0.19420000  0.67050000  0.81170000  1.0 0.110016301
H  H35  1  0.19420000  0.32950000  0.31170000  1.0 0.110016301
H  H36  1  0.80580000  0.32950000  0.18830000  1.0 0.110016301
H  H37  1  0.50660000  0.47300000  0.46180000  1.0 0.0994201039
H  H38  1  0.49340000  0.47300000  0.03820000  1.0 0.0994201039
H  H39  1  0.49340000  0.52700000  0.53820000  1.0 0.0994201039
H  H40  1  0.50660000  0.52700000  0.96180000  1.0 0.0994201039
H  H41  1  0.49200000  0.53600000  0.53540000  1.0 0.110016301
H  H42  1  0.50800000  0.53600000  0.96460000  1.0 0.110016301
H  H43  1  0.50800000  0.46400000  0.46460000  1.0 0.110016301
H  H44  1  0.49200000  0.46400000  0.03540000  1.0 0.110016301
C  C1  1  0.10680000  0.33350000  0.67070000  1.0 -0.0216254502
C  C2  1  0.89320000  0.33350000  0.82930000  1.0 -0.0216254502
C  C3  1  0.89320000  0.66650000  0.32930000  1.0 -0.0216254502
C  C4  1  0.10680000  0.66650000  0.17070000  1.0 -0.0216254502
C  C5  1  0.11070000  0.48640000  0.62020000  1.0 -0.101654243
C  C6  1  0.88930000  0.48640000  0.87980000  1.0 -0.101654243
C  C7  1  0.88930000  0.51360000  0.37980000  1.0 -0.101654243
C  C8  1  0.11070000  0.51360000  0.12020000  1.0 -0.101654243
C  C9  1  0.00209000  0.55800000  0.64324000  1.0 0.1311453601
C  C10  1  0.99791000  0.55800000  0.85676000  1.0 0.1311453601
C  C11  1  0.99791000  0.44200000  0.35676000  1.0 0.1311453601
C  C12  1  0.00209000  0.44200000  0.14324000  1.0 0.1311453601
C  C13  1  0.02159000  0.81950000  0.55097000  1.0 0.1458633949
C  C14  1  0.97841000  0.81950000  0.94903000  1.0 0.1458633949
C  C15  1  0.97841000  0.18050000  0.44903000  1.0 0.1458633949
C  C16  1  0.02159000  0.18050000  0.05097000  1.0 0.1458633949
C  C17  1  0.07310000  0.87890000  0.51720000  1.0 -0.161140729
C  C18  1  0.92690000  0.87890000  0.98280000  1.0 -0.161140729
C  C19  1  0.92690000  0.12110000  0.48280000  1.0 -0.161140729
C  C20  1  0.07310000  0.12110000  0.01720000  1.0 -0.161140729
C  C21  1  0.94860000  0.94040000  0.53350000  1.0 -0.161140729
C  C22  1  0.05140000  0.94040000  0.96650000  1.0 -0.161140729
C  C23  1  0.05140000  0.05960000  0.46650000  1.0 -0.161140729
C  C24  1  0.94860000  0.05960000  0.03350000  1.0 -0.161140729
C  C25  1  0.83649000  0.06380000  0.64578000  1.0 0.5392546614
C  C26  1  0.16351000  0.06380000  0.85422000  1.0 0.5392546614
C  C27  1  0.16351000  0.93620000  0.35422000  1.0 0.5392546614
C  C28  1  0.83649000  0.93620000  0.14578000  1.0 0.5392546614
C  C29  1  0.75574000  0.92490000  0.61220000  1.0 -0.0445127155
C  C30  1  0.24426000  0.92490000  0.88780000  1.0 -0.0445127155
C  C31  1  0.24426000  0.07510000  0.38780000  1.0 -0.0445127155
C  C32  1  0.75574000  0.07510000  0.11220000  1.0 -0.0445127155
C  C33  1  0.68080000  0.99530000  0.54770000  1.0 -0.1189762785
C  C34  1  0.31920000  0.99530000  0.95230000  1.0 -0.1189762785
C  C35  1  0.31920000  0.00470000  0.45230000  1.0 -0.1189762785
C  C36  1  0.68080000  0.00470000  0.04770000  1.0 -0.1189762785
C  C37  1  0.60750000  0.86390000  0.51680000  1.0 -0.2453484277
C  C38  1  0.39250000  0.86390000  0.98320000  1.0 -0.2453484277
C  C39  1  0.39250000  0.13610000  0.48320000  1.0 -0.2453484277
C  C40  1  0.60750000  0.13610000  0.01680000  1.0 -0.2442625354
C  C41  1  0.60540000  0.66360000  0.54900000  1.0 0.0720149909
C  C42  1  0.39460000  0.66360000  0.95100000  1.0 0.0720149909
C  C43  1  0.39460000  0.33640000  0.45100000  1.0 0.0720149909
C  C44  1  0.60540000  0.33640000  0.04900000  1.0 0.0720149909
C  C45  1  0.68020000  0.59850000  0.61320000  1.0 -0.1665181707
C  C46  1  0.31980000  0.59850000  0.88680000  1.0 -0.1665181707
C  C47  1  0.31980000  0.40150000  0.38680000  1.0 -0.1665181707
C  C48  1  0.68020000  0.40150000  0.11320000  1.0 -0.1665181707
C  C49  1  0.75560000  0.72350000  0.64490000  1.0 -0.0831715579
C  C50  1  0.24440000  0.72350000  0.85510000  1.0 -0.0831715579
C  C51  1  0.24440000  0.27650000  0.35510000  1.0 -0.0831715579
C  C52  1  0.75560000  0.27650000  0.14490000  1.0 -0.0831715579
C  C53  1  0.53760000  0.48610000  0.53070000  1.0 -0.0831715579
C  C54  1  0.46240000  0.48610000  0.96930000  1.0 -0.0831715579
C  C55  1  0.46240000  0.51390000  0.46930000  1.0 -0.0831715579
C  C56  1  0.53760000  0.51390000  0.03070000  1.0 -0.0831715579
C  C57  1  0.50740000  0.61000000  0.48810000  1.0 -0.0618031531
C  C58  1  0.49260000  0.61000000  0.01190000  1.0 -0.0618031531
C  C59  1  0.49260000  0.39000000  0.51190000  1.0 -0.0618031531
C  C60  1  0.50740000  0.39000000  0.98810000  1.0 -0.0618031531
N  N1  1  0.03848000  0.37990000  0.68477000  1.0 -0.2729061137
N  N2  1  0.96152000  0.37990000  0.81523000  1.0 -0.2729061137
N  N3  1  0.96152000  0.62010000  0.31523000  1.0 -0.2729061137
N  N4  1  0.03848000  0.62010000  0.18477000  1.0 -0.2729061137
N  N5  1  0.04374000  0.63130000  0.60297000  1.0 0.0066321834
N  N6  1  0.95626000  0.63130000  0.89703000  1.0 0.0066321834
N  N7  1  0.95626000  0.36870000  0.39703000  1.0 0.0066321834
N  N8  1  0.04374000  0.36870000  0.10297000  1.0 0.0066321834
O  O1  1  0.83503000  0.25190000  0.62001000  1.0 -0.5534004788
O  O2  1  0.16497000  0.25190000  0.87999000  1.0 -0.5555711131
O  O3  1  0.16497000  0.74810000  0.37999000  1.0 -0.5555711131
O  O4  1  0.83503000  0.74810000  0.12001000  1.0 -0.5555711131
O  O5  1  0.90434000  0.97780000  0.70142000  1.0 -0.5534004788
O  O6  1  0.09566000  0.97780000  0.79858000  1.0 -0.5534004788
O  O7  1  0.09566000  0.02220000  0.29858000  1.0 -0.5534004788
O  O8  1  0.90434000  0.02220000  0.20142000  1.0 -0.5534004788
