# DDEC6 charges by PACMAN v1.1 (https://github.com/mtap-research/PACMAN-charge/)
data_YUVGOL_FSR_pacman
_symmetry_space_group_name_H-M   'P 1'
_cell_length_a   20.30660000
_cell_length_b   20.30660000
_cell_length_c   20.30660000
_cell_angle_alpha   109.47100000
_cell_angle_beta   109.47100000
_cell_angle_gamma   109.47100000
_symmetry_Int_Tables_number   1
_chemical_formula_structural   ZnH8C14N5O3
_chemical_formula_sum   'Zn12 H96 C168 N60 O36'
_cell_volume   6446.04449999
_cell_formula_units_Z   12
loop_
 _symmetry_equiv_pos_site_id
 _symmetry_equiv_pos_as_xyz
  1  'x, y, z'
loop_
 _atom_site_type_symbol
 _atom_site_label
 _atom_site_symmetry_multiplicity
 _atom_site_fract_x
 _atom_site_fract_y
 _atom_site_fract_z
 _atom_site_occupancy
 _atom_site_charge
Zn  Zn1  1  0.00000000  0.38948000  0.61052000  1.0 0.6671022374
Zn  Zn2  1  0.38948000  0.77896000  0.38948000  1.0 0.6671022374
Zn  Zn3  1  0.00000000  0.61052000  0.38948000  1.0 0.6671022374
Zn  Zn4  1  0.61052000  0.00000000  0.38948000  1.0 0.6671022374
Zn  Zn5  1  0.77896000  0.38948000  0.38948000  1.0 0.6671022374
Zn  Zn6  1  0.61052000  0.22104000  0.61052000  1.0 0.6671022374
Zn  Zn7  1  0.38948000  0.00000000  0.61052000  1.0 0.6671022374
Zn  Zn8  1  0.22104000  0.61052000  0.61052000  1.0 0.6671022374
Zn  Zn9  1  0.38948000  0.61052000  0.00000000  1.0 0.6671022374
Zn  Zn10  1  0.61052000  0.61052000  0.22104000  1.0 0.6671022374
Zn  Zn11  1  0.61052000  0.38948000  0.00000000  1.0 0.6671022374
Zn  Zn12  1  0.38948000  0.38948000  0.77896000  1.0 0.6671022374
H  H1  1  0.87540000  0.41130000  0.65650000  1.0 0.100294278
H  H2  1  0.41130000  0.75480000  0.53590000  1.0 0.100294278
H  H3  1  0.12460000  0.78110000  0.53590000  1.0 0.100294278
H  H4  1  0.65650000  0.87540000  0.41130000  1.0 0.100294278
H  H5  1  0.75480000  0.21890000  0.34350000  1.0 0.100294278
H  H6  1  0.78110000  0.24520000  0.65650000  1.0 0.100294278
H  H7  1  0.87540000  0.46410000  0.21890000  1.0 0.100294278
H  H8  1  0.21890000  0.87540000  0.46410000  1.0 0.100294278
H  H9  1  0.24520000  0.58870000  0.46410000  1.0 0.100294278
H  H10  1  0.46410000  0.24520000  0.58870000  1.0 0.100294278
H  H11  1  0.58870000  0.12460000  0.34350000  1.0 0.100294278
H  H12  1  0.24520000  0.65650000  0.78110000  1.0 0.100294278
H  H13  1  0.34350000  0.75480000  0.21890000  1.0 0.100294278
H  H14  1  0.12460000  0.34350000  0.58870000  1.0 0.100294278
H  H15  1  0.53590000  0.12460000  0.78110000  1.0 0.100294278
H  H16  1  0.75480000  0.53590000  0.41130000  1.0 0.100294278
H  H17  1  0.41130000  0.65650000  0.87540000  1.0 0.100294278
H  H18  1  0.65650000  0.78110000  0.24520000  1.0 0.100294278
H  H19  1  0.46410000  0.21890000  0.87540000  1.0 0.100294278
H  H20  1  0.58870000  0.46410000  0.24520000  1.0 0.100294278
H  H21  1  0.34350000  0.58870000  0.12460000  1.0 0.100294278
H  H22  1  0.21890000  0.34350000  0.75480000  1.0 0.100294278
H  H23  1  0.78110000  0.53590000  0.12460000  1.0 0.100294278
H  H24  1  0.53590000  0.41130000  0.75480000  1.0 0.100294278
H  H25  1  0.12460000  0.58870000  0.34350000  1.0 0.100294278
H  H26  1  0.58870000  0.24520000  0.46410000  1.0 0.100294278
H  H27  1  0.87540000  0.21890000  0.46410000  1.0 0.100294278
H  H28  1  0.34350000  0.12460000  0.58870000  1.0 0.100294278
H  H29  1  0.24520000  0.78110000  0.65650000  1.0 0.100294278
H  H30  1  0.21890000  0.75480000  0.34350000  1.0 0.100294278
H  H31  1  0.12460000  0.53590000  0.78110000  1.0 0.100294278
H  H32  1  0.78110000  0.12460000  0.53590000  1.0 0.100294278
H  H33  1  0.75480000  0.41130000  0.53590000  1.0 0.100294278
H  H34  1  0.53590000  0.75480000  0.41130000  1.0 0.100294278
H  H35  1  0.41130000  0.87540000  0.65650000  1.0 0.100294278
H  H36  1  0.75480000  0.34350000  0.21890000  1.0 0.100294278
H  H37  1  0.65650000  0.24520000  0.78110000  1.0 0.100294278
H  H38  1  0.87540000  0.65650000  0.41130000  1.0 0.100294278
H  H39  1  0.46410000  0.87540000  0.21890000  1.0 0.100294278
H  H40  1  0.24520000  0.46410000  0.58870000  1.0 0.100294278
H  H41  1  0.58870000  0.34350000  0.12460000  1.0 0.100294278
H  H42  1  0.34350000  0.21890000  0.75480000  1.0 0.100294278
H  H43  1  0.53590000  0.78110000  0.12460000  1.0 0.100294278
H  H44  1  0.41130000  0.53590000  0.75480000  1.0 0.100294278
H  H45  1  0.65650000  0.41130000  0.87540000  1.0 0.100294278
H  H46  1  0.78110000  0.65650000  0.24520000  1.0 0.100294278
H  H47  1  0.21890000  0.46410000  0.87540000  1.0 0.100294278
H  H48  1  0.46410000  0.58870000  0.24520000  1.0 0.100294278
H  H49  1  0.87120000  0.46980000  0.78040000  1.0 0.122885777
H  H50  1  0.46980000  0.68940000  0.59860000  1.0 0.122885777
H  H51  1  0.12880000  0.90920000  0.59860000  1.0 0.122885777
H  H52  1  0.78040000  0.87120000  0.46980000  1.0 0.122885777
H  H53  1  0.68940000  0.09080000  0.21960000  1.0 0.122885777
H  H54  1  0.90920000  0.31060000  0.78040000  1.0 0.122885777
H  H55  1  0.87120000  0.40140000  0.09080000  1.0 0.122885777
H  H56  1  0.09080000  0.87120000  0.40140000  1.0 0.122885777
H  H57  1  0.31060000  0.53020000  0.40140000  1.0 0.122885777
H  H58  1  0.40140000  0.31060000  0.53020000  1.0 0.122885777
H  H59  1  0.53020000  0.12880000  0.21960000  1.0 0.122885777
H  H60  1  0.31060000  0.78040000  0.90920000  1.0 0.122885777
H  H61  1  0.21960000  0.68940000  0.09080000  1.0 0.122885777
H  H62  1  0.12880000  0.21960000  0.53020000  1.0 0.122885777
H  H63  1  0.59860000  0.12880000  0.90920000  1.0 0.122885777
H  H64  1  0.68940000  0.59860000  0.46980000  1.0 0.122885777
H  H65  1  0.46980000  0.78040000  0.87120000  1.0 0.122885777
H  H66  1  0.78040000  0.90920000  0.31060000  1.0 0.122885777
H  H67  1  0.40140000  0.09080000  0.87120000  1.0 0.122885777
H  H68  1  0.53020000  0.40140000  0.31060000  1.0 0.122885777
H  H69  1  0.21960000  0.53020000  0.12880000  1.0 0.122885777
H  H70  1  0.09080000  0.21960000  0.68940000  1.0 0.122885777
H  H71  1  0.90920000  0.59860000  0.12880000  1.0 0.122885777
H  H72  1  0.59860000  0.46980000  0.68940000  1.0 0.122885777
H  H73  1  0.12880000  0.53020000  0.21960000  1.0 0.122885777
H  H74  1  0.53020000  0.31060000  0.40140000  1.0 0.122885777
H  H75  1  0.87120000  0.09080000  0.40140000  1.0 0.122885777
H  H76  1  0.21960000  0.12880000  0.53020000  1.0 0.122885777
H  H77  1  0.31060000  0.90920000  0.78040000  1.0 0.122885777
H  H78  1  0.09080000  0.68940000  0.21960000  1.0 0.122885777
H  H79  1  0.12880000  0.59860000  0.90920000  1.0 0.122885777
H  H80  1  0.90920000  0.12880000  0.59860000  1.0 0.122885777
H  H81  1  0.68940000  0.46980000  0.59860000  1.0 0.122885777
H  H82  1  0.59860000  0.68940000  0.46980000  1.0 0.122885777
H  H83  1  0.46980000  0.87120000  0.78040000  1.0 0.122885777
H  H84  1  0.68940000  0.21960000  0.09080000  1.0 0.122885777
H  H85  1  0.78040000  0.31060000  0.90920000  1.0 0.122885777
H  H86  1  0.87120000  0.78040000  0.46980000  1.0 0.122885777
H  H87  1  0.40140000  0.87120000  0.09080000  1.0 0.122885777
H  H88  1  0.31060000  0.40140000  0.53020000  1.0 0.122885777
H  H89  1  0.53020000  0.21960000  0.12880000  1.0 0.122885777
H  H90  1  0.21960000  0.09080000  0.68940000  1.0 0.122885777
H  H91  1  0.59860000  0.90920000  0.12880000  1.0 0.122885777
H  H92  1  0.46980000  0.59860000  0.68940000  1.0 0.122885777
H  H93  1  0.78040000  0.46980000  0.87120000  1.0 0.122885777
H  H94  1  0.90920000  0.78040000  0.31060000  1.0 0.122885777
H  H95  1  0.09080000  0.40140000  0.87120000  1.0 0.122885777
H  H96  1  0.40140000  0.53020000  0.31060000  1.0 0.122885777
C  C1  1  0.93150000  0.45180000  0.71310000  1.0 0.0947639494
C  C2  1  0.45180000  0.73870000  0.52030000  1.0 0.0947639494
C  C3  1  0.06850000  0.78160000  0.52030000  1.0 0.0947639494
C  C4  1  0.71310000  0.93150000  0.45180000  1.0 0.0947639494
C  C5  1  0.73870000  0.21840000  0.28690000  1.0 0.0947639494
C  C6  1  0.78160000  0.26130000  0.71310000  1.0 0.0947639494
C  C7  1  0.93150000  0.47970000  0.21840000  1.0 0.0947639494
C  C8  1  0.21840000  0.93150000  0.47970000  1.0 0.0947639494
C  C9  1  0.26130000  0.54820000  0.47970000  1.0 0.0947639494
C  C10  1  0.47970000  0.26130000  0.54820000  1.0 0.0947639494
C  C11  1  0.54820000  0.06850000  0.28690000  1.0 0.0947639494
C  C12  1  0.26130000  0.71310000  0.78160000  1.0 0.0947639494
C  C13  1  0.28690000  0.73870000  0.21840000  1.0 0.100294278
C  C14  1  0.06850000  0.28690000  0.54820000  1.0 0.0947639494
C  C15  1  0.52030000  0.06850000  0.78160000  1.0 0.0947639494
C  C16  1  0.73870000  0.52030000  0.45180000  1.0 0.100294278
C  C17  1  0.45180000  0.71310000  0.93150000  1.0 0.100294278
C  C18  1  0.71310000  0.78160000  0.26130000  1.0 0.0947639494
C  C19  1  0.47970000  0.21840000  0.93150000  1.0 0.0947639494
C  C20  1  0.54820000  0.47970000  0.26130000  1.0 0.0947639494
C  C21  1  0.28690000  0.54820000  0.06850000  1.0 0.0947639494
C  C22  1  0.21840000  0.28690000  0.73870000  1.0 0.0947639494
C  C23  1  0.78160000  0.52030000  0.06850000  1.0 0.100294278
C  C24  1  0.52030000  0.45180000  0.73870000  1.0 0.100294278
C  C25  1  0.06850000  0.54820000  0.28690000  1.0 0.0947639494
C  C26  1  0.54820000  0.26130000  0.47970000  1.0 0.100294278
C  C27  1  0.93150000  0.21840000  0.47970000  1.0 0.0947639494
C  C28  1  0.28690000  0.06850000  0.54820000  1.0 0.0947639494
C  C29  1  0.26130000  0.78160000  0.71310000  1.0 0.0947639494
C  C30  1  0.21840000  0.73870000  0.28690000  1.0 0.0947639494
C  C31  1  0.06850000  0.52030000  0.78160000  1.0 0.0947639494
C  C32  1  0.78160000  0.06850000  0.52030000  1.0 0.0947639494
C  C33  1  0.73870000  0.45180000  0.52030000  1.0 0.0947639494
C  C34  1  0.52030000  0.73870000  0.45180000  1.0 0.0947639494
C  C35  1  0.45180000  0.93150000  0.71310000  1.0 0.0947639494
C  C36  1  0.73870000  0.28690000  0.21840000  1.0 0.0947639494
C  C37  1  0.71310000  0.26130000  0.78160000  1.0 0.0947639494
C  C38  1  0.93150000  0.71310000  0.45180000  1.0 0.100294278
C  C39  1  0.47970000  0.93150000  0.21840000  1.0 0.0947639494
C  C40  1  0.26130000  0.47970000  0.54820000  1.0 0.0947639494
C  C41  1  0.54820000  0.28690000  0.06850000  1.0 0.0947639494
C  C42  1  0.28690000  0.21840000  0.73870000  1.0 0.0947639494
C  C43  1  0.52030000  0.78160000  0.06850000  1.0 0.100294278
C  C44  1  0.45180000  0.52030000  0.73870000  1.0 0.0947639494
C  C45  1  0.71310000  0.45180000  0.93150000  1.0 0.0947639494
C  C46  1  0.78160000  0.71310000  0.26130000  1.0 0.0947639494
C  C47  1  0.21840000  0.47970000  0.93150000  1.0 0.0947639494
C  C48  1  0.47970000  0.54820000  0.26130000  1.0 0.0947639494
C  C49  1  0.92840000  0.48440000  0.78260000  1.0 -0.1343167165
C  C50  1  0.48440000  0.70180000  0.55600000  1.0 -0.1343167165
C  C51  1  0.07160000  0.85420000  0.55600000  1.0 -0.1343167165
C  C52  1  0.78260000  0.92840000  0.48440000  1.0 -0.1343167165
C  C53  1  0.70180000  0.14580000  0.21740000  1.0 -0.1343167165
C  C54  1  0.85420000  0.29820000  0.78260000  1.0 -0.1343167165
C  C55  1  0.92840000  0.44400000  0.14580000  1.0 -0.1343167165
C  C56  1  0.14580000  0.92840000  0.44400000  1.0 -0.1343167165
C  C57  1  0.29820000  0.51560000  0.44400000  1.0 -0.1343167165
C  C58  1  0.44400000  0.29820000  0.51560000  1.0 -0.1343167165
C  C59  1  0.51560000  0.07160000  0.21740000  1.0 -0.1343167165
C  C60  1  0.29820000  0.78260000  0.85420000  1.0 -0.1343167165
C  C61  1  0.21740000  0.70180000  0.14580000  1.0 -0.1343167165
C  C62  1  0.07160000  0.21740000  0.51560000  1.0 -0.1343167165
C  C63  1  0.55600000  0.07160000  0.85420000  1.0 -0.1343167165
C  C64  1  0.70180000  0.55600000  0.48440000  1.0 -0.1343167165
C  C65  1  0.48440000  0.78260000  0.92840000  1.0 -0.1343167165
C  C66  1  0.78260000  0.85420000  0.29820000  1.0 -0.1343167165
C  C67  1  0.44400000  0.14580000  0.92840000  1.0 -0.1343167165
C  C68  1  0.51560000  0.44400000  0.29820000  1.0 -0.1343167165
C  C69  1  0.21740000  0.51560000  0.07160000  1.0 -0.1343167165
C  C70  1  0.14580000  0.21740000  0.70180000  1.0 -0.1343167165
C  C71  1  0.85420000  0.55600000  0.07160000  1.0 -0.1343167165
C  C72  1  0.55600000  0.48440000  0.70180000  1.0 -0.1343167165
C  C73  1  0.07160000  0.51560000  0.21740000  1.0 -0.1343167165
C  C74  1  0.51560000  0.29820000  0.44400000  1.0 -0.1343167165
C  C75  1  0.92840000  0.14580000  0.44400000  1.0 -0.1343167165
C  C76  1  0.21740000  0.07160000  0.51560000  1.0 -0.1343167165
C  C77  1  0.29820000  0.85420000  0.78260000  1.0 -0.1343167165
C  C78  1  0.14580000  0.70180000  0.21740000  1.0 -0.1343167165
C  C79  1  0.07160000  0.55600000  0.85420000  1.0 -0.1343167165
C  C80  1  0.85420000  0.07160000  0.55600000  1.0 -0.1343167165
C  C81  1  0.70180000  0.48440000  0.55600000  1.0 -0.1343167165
C  C82  1  0.55600000  0.70180000  0.48440000  1.0 -0.1343167165
C  C83  1  0.48440000  0.92840000  0.78260000  1.0 -0.1343167165
C  C84  1  0.70180000  0.21740000  0.14580000  1.0 -0.1343167165
C  C85  1  0.78260000  0.29820000  0.85420000  1.0 -0.1343167165
C  C86  1  0.92840000  0.78260000  0.48440000  1.0 -0.1343167165
C  C87  1  0.44400000  0.92840000  0.14580000  1.0 -0.1343167165
C  C88  1  0.29820000  0.44400000  0.51560000  1.0 -0.1343167165
C  C89  1  0.51560000  0.21740000  0.07160000  1.0 -0.1343167165
C  C90  1  0.21740000  0.14580000  0.70180000  1.0 -0.1343167165
C  C91  1  0.55600000  0.85420000  0.07160000  1.0 -0.1343167165
C  C92  1  0.48440000  0.55600000  0.70180000  1.0 -0.1343167165
C  C93  1  0.78260000  0.48440000  0.92840000  1.0 -0.1343167165
C  C94  1  0.85420000  0.78260000  0.29820000  1.0 -0.1343167165
C  C95  1  0.14580000  0.44400000  0.92840000  1.0 -0.1343167165
C  C96  1  0.44400000  0.51560000  0.29820000  1.0 -0.1343167165
C  C97  1  0.00000000  0.53620000  0.85520000  1.0 0.0561831704
C  C98  1  0.53620000  0.68100000  0.53620000  1.0 0.0561831704
C  C99  1  0.00000000  0.85520000  0.53620000  1.0 0.0561831704
C  C100  1  0.85520000  0.00000000  0.53620000  1.0 0.0561831704
C  C101  1  0.68100000  0.14480000  0.14480000  1.0 0.0561831704
C  C102  1  0.85520000  0.31900000  0.85520000  1.0 0.0561831704
C  C103  1  0.00000000  0.46380000  0.14480000  1.0 0.0561831704
C  C104  1  0.14480000  0.00000000  0.46380000  1.0 0.0561831704
C  C105  1  0.31900000  0.46380000  0.46380000  1.0 0.0561831704
C  C106  1  0.46380000  0.31900000  0.46380000  1.0 0.0561831704
C  C107  1  0.46380000  0.00000000  0.14480000  1.0 0.0561831704
C  C108  1  0.31900000  0.85520000  0.85520000  1.0 0.0561831704
C  C109  1  0.14480000  0.68100000  0.14480000  1.0 0.0561831704
C  C110  1  0.00000000  0.14480000  0.46380000  1.0 0.0561831704
C  C111  1  0.53620000  0.00000000  0.85520000  1.0 0.0561831704
C  C112  1  0.68100000  0.53620000  0.53620000  1.0 0.0561831704
C  C113  1  0.53620000  0.85520000  0.00000000  1.0 0.0561831704
C  C114  1  0.85520000  0.85520000  0.31900000  1.0 0.0561831704
C  C115  1  0.46380000  0.14480000  0.00000000  1.0 0.0561831704
C  C116  1  0.46380000  0.46380000  0.31900000  1.0 0.0561831704
C  C117  1  0.14480000  0.46380000  0.00000000  1.0 0.0561831704
C  C118  1  0.14480000  0.14480000  0.68100000  1.0 0.0561831704
C  C119  1  0.85520000  0.53620000  0.00000000  1.0 0.0561831704
C  C120  1  0.53620000  0.53620000  0.68100000  1.0 0.0561831704
C  C121  1  0.00000000  0.56510000  0.93210000  1.0 0.3580683021
C  C122  1  0.56510000  0.63300000  0.56510000  1.0 0.3580683021
C  C123  1  0.00000000  0.93210000  0.56510000  1.0 0.3580683021
C  C124  1  0.93210000  0.00000000  0.56510000  1.0 0.3580683021
C  C125  1  0.63300000  0.06790000  0.06790000  1.0 0.3580683021
C  C126  1  0.93210000  0.36700000  0.93210000  1.0 0.3580683021
C  C127  1  0.00000000  0.43490000  0.06790000  1.0 0.3580683021
C  C128  1  0.06790000  0.00000000  0.43490000  1.0 0.3580683021
C  C129  1  0.36700000  0.43490000  0.43490000  1.0 0.3580683021
C  C130  1  0.43490000  0.36700000  0.43490000  1.0 0.3580683021
C  C131  1  0.43490000  0.00000000  0.06790000  1.0 0.3580683021
C  C132  1  0.36700000  0.93210000  0.93210000  1.0 0.3580683021
C  C133  1  0.06790000  0.63300000  0.06790000  1.0 0.3580683021
C  C134  1  0.00000000  0.06790000  0.43490000  1.0 0.3580683021
C  C135  1  0.56510000  0.00000000  0.93210000  1.0 0.3580683021
C  C136  1  0.63300000  0.56510000  0.56510000  1.0 0.3580683021
C  C137  1  0.56510000  0.93210000  0.00000000  1.0 0.3580683021
C  C138  1  0.93210000  0.93210000  0.36700000  1.0 0.3580683021
C  C139  1  0.43490000  0.06790000  0.00000000  1.0 0.3580683021
C  C140  1  0.43490000  0.43490000  0.36700000  1.0 0.3580683021
C  C141  1  0.06790000  0.43490000  0.00000000  1.0 0.3580683021
C  C142  1  0.06790000  0.06790000  0.63300000  1.0 0.3580683021
C  C143  1  0.93210000  0.56510000  0.00000000  1.0 0.3580683021
C  C144  1  0.56510000  0.56510000  0.63300000  1.0 0.3580683021
C  C145  1  0.89850000  0.37380000  0.52470000  1.0 -0.2494934352
C  C146  1  0.37380000  0.84910000  0.47530000  1.0 -0.2494934352
C  C147  1  0.10150000  0.62620000  0.47530000  1.0 -0.2494934352
C  C148  1  0.52470000  0.89850000  0.37380000  1.0 -0.2494934352
C  C149  1  0.84910000  0.37380000  0.47530000  1.0 -0.2494934352
C  C150  1  0.62620000  0.15090000  0.52470000  1.0 -0.2494934352
C  C151  1  0.89850000  0.52470000  0.37380000  1.0 -0.2494934352
C  C152  1  0.37380000  0.89850000  0.52470000  1.0 -0.2494934352
C  C153  1  0.15090000  0.62620000  0.52470000  1.0 -0.2494934352
C  C154  1  0.52470000  0.15090000  0.62620000  1.0 -0.2494934352
C  C155  1  0.62620000  0.10150000  0.47530000  1.0 -0.2494934352
C  C156  1  0.15090000  0.52470000  0.62620000  1.0 -0.2494934352
C  C157  1  0.47530000  0.84910000  0.37380000  1.0 -0.2494934352
C  C158  1  0.10150000  0.47530000  0.62620000  1.0 -0.2494934352
C  C159  1  0.47530000  0.10150000  0.62620000  1.0 -0.2494934352
C  C160  1  0.84910000  0.47530000  0.37380000  1.0 -0.2494934352
C  C161  1  0.37380000  0.52470000  0.89850000  1.0 -0.2494934352
C  C162  1  0.52470000  0.62620000  0.15090000  1.0 -0.2494934352
C  C163  1  0.52470000  0.37380000  0.89850000  1.0 -0.2494934352
C  C164  1  0.62620000  0.52470000  0.15090000  1.0 -0.2494934352
C  C165  1  0.47530000  0.62620000  0.10150000  1.0 -0.2494934352
C  C166  1  0.37380000  0.47530000  0.84910000  1.0 -0.2494934352
C  C167  1  0.62620000  0.47530000  0.10150000  1.0 -0.2494934352
C  C168  1  0.47530000  0.37380000  0.84910000  1.0 -0.2494934352
N  N1  1  0.00000000  0.46770000  0.71250000  1.0 -0.201674469
N  N2  1  0.46770000  0.75520000  0.46770000  1.0 -0.201674469
N  N3  1  0.00000000  0.71250000  0.46770000  1.0 -0.201674469
N  N4  1  0.71250000  0.00000000  0.46770000  1.0 -0.201674469
N  N5  1  0.75520000  0.28750000  0.28750000  1.0 -0.201674469
N  N6  1  0.71250000  0.24480000  0.71250000  1.0 -0.201674469
N  N7  1  0.00000000  0.53230000  0.28750000  1.0 -0.201674469
N  N8  1  0.28750000  0.00000000  0.53230000  1.0 -0.201674469
N  N9  1  0.24480000  0.53230000  0.53230000  1.0 -0.201674469
N  N10  1  0.53230000  0.24480000  0.53230000  1.0 -0.201674469
N  N11  1  0.53230000  0.00000000  0.28750000  1.0 -0.201674469
N  N12  1  0.24480000  0.71250000  0.71250000  1.0 -0.201674469
N  N13  1  0.28750000  0.75520000  0.28750000  1.0 -0.201674469
N  N14  1  0.00000000  0.28750000  0.53230000  1.0 -0.201674469
N  N15  1  0.46770000  0.00000000  0.71250000  1.0 -0.201674469
N  N16  1  0.75520000  0.46770000  0.46770000  1.0 -0.201674469
N  N17  1  0.46770000  0.71250000  0.00000000  1.0 -0.201674469
N  N18  1  0.71250000  0.71250000  0.24480000  1.0 -0.201674469
N  N19  1  0.53230000  0.28750000  0.00000000  1.0 -0.201674469
N  N20  1  0.53230000  0.53230000  0.24480000  1.0 -0.201674469
N  N21  1  0.28750000  0.53230000  0.00000000  1.0 -0.201674469
N  N22  1  0.28750000  0.28750000  0.75520000  1.0 -0.201674469
N  N23  1  0.71250000  0.46770000  0.00000000  1.0 -0.201674469
N  N24  1  0.46770000  0.46770000  0.75520000  1.0 -0.201674469
N  N25  1  0.07090000  0.61130000  0.00000000  1.0 -0.387025931
N  N26  1  0.61130000  0.61130000  0.54040000  1.0 -0.387025931
N  N27  1  0.92910000  0.92910000  0.54040000  1.0 -0.387025931
N  N28  1  0.00000000  0.07090000  0.61130000  1.0 -0.387025931
N  N29  1  0.61130000  0.07090000  0.00000000  1.0 -0.387025931
N  N30  1  0.92910000  0.38870000  0.00000000  1.0 -0.387025931
N  N31  1  0.07090000  0.45960000  0.07090000  1.0 -0.387025931
N  N32  1  0.07090000  0.07090000  0.45960000  1.0 -0.387025931
N  N33  1  0.38870000  0.38870000  0.45960000  1.0 -0.387025931
N  N34  1  0.45960000  0.38870000  0.38870000  1.0 -0.387025931
N  N35  1  0.38870000  0.92910000  0.00000000  1.0 -0.387025931
N  N36  1  0.38870000  0.00000000  0.92910000  1.0 -0.387025931
N  N37  1  0.00000000  0.61130000  0.07090000  1.0 -0.387025931
N  N38  1  0.92910000  0.00000000  0.38870000  1.0 -0.387025931
N  N39  1  0.54040000  0.92910000  0.92910000  1.0 -0.387025931
N  N40  1  0.61130000  0.54040000  0.61130000  1.0 -0.387025931
N  N41  1  0.61130000  0.00000000  0.07090000  1.0 -0.387025931
N  N42  1  0.00000000  0.92910000  0.38870000  1.0 -0.387025931
N  N43  1  0.45960000  0.07090000  0.07090000  1.0 -0.387025931
N  N44  1  0.38870000  0.45960000  0.38870000  1.0 -0.387025931
N  N45  1  0.00000000  0.38870000  0.92910000  1.0 -0.387025931
N  N46  1  0.07090000  0.00000000  0.61130000  1.0 -0.387025931
N  N47  1  0.92910000  0.54040000  0.92910000  1.0 -0.387025931
N  N48  1  0.54040000  0.61130000  0.61130000  1.0 -0.387025931
N  N49  1  0.00000000  0.30670000  0.69330000  1.0 0.6873644986
N  N50  1  0.30670000  0.61340000  0.30670000  1.0 0.6873644986
N  N51  1  0.00000000  0.69330000  0.30670000  1.0 0.6873644986
N  N52  1  0.69330000  0.00000000  0.30670000  1.0 0.6873644986
N  N53  1  0.61340000  0.30670000  0.30670000  1.0 0.6873644986
N  N54  1  0.69330000  0.38660000  0.69330000  1.0 0.6873644986
N  N55  1  0.30670000  0.00000000  0.69330000  1.0 0.6873644986
N  N56  1  0.38660000  0.69330000  0.69330000  1.0 0.6873644986
N  N57  1  0.30670000  0.69330000  0.00000000  1.0 0.6873644986
N  N58  1  0.69330000  0.69330000  0.38660000  1.0 0.6873644986
N  N59  1  0.69330000  0.30670000  0.00000000  1.0 0.6873644986
N  N60  1  0.30670000  0.30670000  0.61340000  1.0 0.6873644986
O  O1  1  0.06540000  0.35850000  0.70690000  1.0 -0.4288760587
O  O2  1  0.35850000  0.65160000  0.29310000  1.0 -0.4288760587
O  O3  1  0.93460000  0.64150000  0.29310000  1.0 -0.4288760587
O  O4  1  0.70690000  0.06540000  0.35850000  1.0 -0.4288760587
O  O5  1  0.65160000  0.35850000  0.29310000  1.0 -0.4288760587
O  O6  1  0.64150000  0.34840000  0.70690000  1.0 -0.4288760587
O  O7  1  0.06540000  0.70690000  0.35850000  1.0 -0.4288760587
O  O8  1  0.35850000  0.06540000  0.70690000  1.0 -0.4288760587
O  O9  1  0.34840000  0.64150000  0.70690000  1.0 -0.4288760587
O  O10  1  0.70690000  0.34840000  0.64150000  1.0 -0.4288760587
O  O11  1  0.64150000  0.93460000  0.29310000  1.0 -0.4288760587
O  O12  1  0.34840000  0.70690000  0.64150000  1.0 -0.4288760587
O  O13  1  0.29310000  0.65160000  0.35850000  1.0 -0.4288760587
O  O14  1  0.93460000  0.29310000  0.64150000  1.0 -0.4288760587
O  O15  1  0.29310000  0.93460000  0.64150000  1.0 -0.4288760587
O  O16  1  0.65160000  0.29310000  0.35850000  1.0 -0.4288760587
O  O17  1  0.35850000  0.70690000  0.06540000  1.0 -0.4288760587
O  O18  1  0.70690000  0.64150000  0.34840000  1.0 -0.4288760587
O  O19  1  0.70690000  0.35850000  0.06540000  1.0 -0.4288760587
O  O20  1  0.64150000  0.70690000  0.34840000  1.0 -0.4288760587
O  O21  1  0.29310000  0.64150000  0.93460000  1.0 -0.4288760587
O  O22  1  0.35850000  0.29310000  0.65160000  1.0 -0.4288760587
O  O23  1  0.64150000  0.29310000  0.93460000  1.0 -0.4288760587
O  O24  1  0.29310000  0.35850000  0.65160000  1.0 -0.4288760587
O  O25  1  0.00000000  0.26960000  0.73040000  1.0 -0.387025931
O  O26  1  0.26960000  0.53920000  0.26960000  1.0 -0.387025931
O  O27  1  0.00000000  0.73040000  0.26960000  1.0 -0.387025931
O  O28  1  0.73040000  0.00000000  0.26960000  1.0 -0.387025931
O  O29  1  0.53920000  0.26960000  0.26960000  1.0 -0.387025931
O  O30  1  0.73040000  0.46080000  0.73040000  1.0 -0.387025931
O  O31  1  0.26960000  0.00000000  0.73040000  1.0 -0.387025931
O  O32  1  0.46080000  0.73040000  0.73040000  1.0 -0.387025931
O  O33  1  0.26960000  0.73040000  0.00000000  1.0 -0.387025931
O  O34  1  0.73040000  0.73040000  0.46080000  1.0 -0.387025931
O  O35  1  0.73040000  0.26960000  0.00000000  1.0 -0.387025931
O  O36  1  0.26960000  0.26960000  0.53920000  1.0 -0.387025931
