# DDEC6 charges by PACMAN v1.1 (https://github.com/mtap-research/PACMAN-charge/)
data_YUWXUM_FSR_pacman
_chemical_formula_sum              "O26 C102 H72 V6 S6 N6"
_cell_length_a       14.886
_cell_length_b       14.886
_cell_length_c       17.089
_cell_angle_alpha    90
_cell_angle_beta     90
_cell_angle_gamma    120

_symmetry_space_group_name_H-M    "P 1"
_symmetry_Int_Tables_number       1

loop_
  _symmetry_equiv_pos_as_xyz
  'x, y, z'

loop_
  _atom_site_type_symbol
  _atom_site_label
  _atom_site_symmetry_multiplicity
  _atom_site_fract_x
  _atom_site_fract_y
  _atom_site_fract_z
  _atom_site_occupancy
 _atom_site_charge
O   O1        1.0  0.49620  0.65320  0.66482  1.0000 -0.5386585668
C   C1        1.0  0.40500  0.43660  0.53290  1.0000 -0.1151300954
H   H1        1.0  0.34021  0.39275  0.55462  1.0000 0.1195980416
O   O2        1.0  0.34680  0.84300  0.66482  1.0000 -0.5386585668
C   C2        1.0  0.56340  0.96840  0.53290  1.0000 -0.1151300954
H   H2        1.0  0.60725  0.94746  0.55462  1.0000 0.1195980416
O   O3        1.0  0.15700  0.50380  0.66482  1.0000 -0.5386585668
C   C3        1.0  0.03160  0.59500  0.53290  1.0000 -0.1151300954
H   H3        1.0  0.05254  0.65979  0.55462  1.0000 0.1195980416
O   O4        1.0  0.50380  0.34680  0.16482  1.0000 -0.5386585668
C   C4        1.0  0.59500  0.56340  0.03290  1.0000 -0.1151300954
H   H4        1.0  0.65979  0.60725  0.05462  1.0000 0.1195980416
O   O5        1.0  0.65320  0.15700  0.16482  1.0000 -0.5386585668
C   C5        1.0  0.43660  0.03160  0.03290  1.0000 -0.1151300954
H   H5        1.0  0.39275  0.05254  0.05462  1.0000 0.1195980416
O   O6        1.0  0.84300  0.49620  0.16482  1.0000 -0.5386585668
C   C6        1.0  0.96840  0.40500  0.03290  1.0000 -0.1151300954
H   H6        1.0  0.94746  0.34021  0.05462  1.0000 0.1195980416
O   O7        1.0  0.65320  0.49620  0.33518  1.0000 -0.5386585668
C   C7        1.0  0.43660  0.40500  0.46710  1.0000 -0.1151300954
H   H7        1.0  0.39275  0.34021  0.44538  1.0000 0.1195980416
O   O8        1.0  0.84300  0.34680  0.33518  1.0000 -0.5386585668
C   C8        1.0  0.96840  0.56340  0.46710  1.0000 -0.1151300954
H   H8        1.0  0.94746  0.60725  0.44538  1.0000 0.1195980416
O   O9        1.0  0.50380  0.15700  0.33518  1.0000 -0.5386585668
C   C9        1.0  0.59500  0.03160  0.46710  1.0000 -0.1151300954
H   H9        1.0  0.65979  0.05254  0.44538  1.0000 0.1195980416
O   O10       1.0  0.34680  0.50380  0.83518  1.0000 -0.5386585668
C   C10       1.0  0.56340  0.59500  0.96710  1.0000 -0.1151300954
H   H10       1.0  0.60725  0.65979  0.94538  1.0000 0.1195980416
O   O11       1.0  0.15700  0.65320  0.83518  1.0000 -0.5386585668
C   C11       1.0  0.03160  0.43660  0.96710  1.0000 -0.1151300954
H   H11       1.0  0.05254  0.39275  0.94538  1.0000 0.1195980416
O   O12       1.0  0.49620  0.84300  0.83518  1.0000 -0.5386585668
C   C12       1.0  0.40500  0.96840  0.96710  1.0000 -0.1151300954
H   H12       1.0  0.34021  0.94746  0.94538  1.0000 0.1195980416
O   O13       1.0  0.50380  0.34680  0.33518  1.0000 -0.5386585668
C   C13       1.0  0.59500  0.56340  0.46710  1.0000 -0.1151300954
H   H13       1.0  0.65979  0.60725  0.44538  1.0000 0.1195980416
O   O14       1.0  0.65320  0.15700  0.33518  1.0000 -0.5386585668
C   C14       1.0  0.43660  0.03160  0.46710  1.0000 -0.1151300954
H   H14       1.0  0.39275  0.05254  0.44538  1.0000 0.1195980416
O   O15       1.0  0.84300  0.49620  0.33518  1.0000 -0.5386585668
C   C15       1.0  0.96840  0.40500  0.46710  1.0000 -0.1151300954
H   H15       1.0  0.94746  0.34021  0.44538  1.0000 0.1195980416
O   O16       1.0  0.49620  0.65320  0.83518  1.0000 -0.5386585668
C   C16       1.0  0.40500  0.43660  0.96710  1.0000 -0.1151300954
H   H16       1.0  0.34021  0.39275  0.94538  1.0000 0.1195980416
O   O17       1.0  0.34680  0.84300  0.83518  1.0000 -0.5386585668
C   C17       1.0  0.56340  0.96840  0.96710  1.0000 -0.1151300954
H   H17       1.0  0.60725  0.94746  0.94538  1.0000 0.1195980416
O   O18       1.0  0.15700  0.50380  0.83518  1.0000 -0.5386585668
C   C18       1.0  0.03160  0.59500  0.96710  1.0000 -0.1151300954
H   H18       1.0  0.05254  0.65979  0.94538  1.0000 0.1195980416
O   O19       1.0  0.34680  0.50380  0.66482  1.0000 -0.5386585668
C   C19       1.0  0.56340  0.59500  0.53290  1.0000 -0.1151300954
H   H19       1.0  0.60725  0.65979  0.55462  1.0000 0.1195980416
O   O20       1.0  0.15700  0.65320  0.66482  1.0000 -0.5386585668
C   C20       1.0  0.03160  0.43660  0.53290  1.0000 -0.1151300954
H   H20       1.0  0.05254  0.39275  0.55462  1.0000 0.1195980416
O   O21       1.0  0.49620  0.84300  0.66482  1.0000 -0.5386585668
C   C21       1.0  0.40500  0.96840  0.53290  1.0000 -0.1151300954
H   H21       1.0  0.34021  0.94746  0.55462  1.0000 0.1195980416
O   O22       1.0  0.65320  0.49620  0.16482  1.0000 -0.5386585668
C   C22       1.0  0.43660  0.40500  0.03290  1.0000 -0.1151300954
H   H22       1.0  0.39275  0.34021  0.05462  1.0000 0.1195980416
O   O23       1.0  0.84300  0.34680  0.16482  1.0000 -0.5386585668
C   C23       1.0  0.96840  0.56340  0.03290  1.0000 -0.1151300954
H   H23       1.0  0.94746  0.60725  0.05462  1.0000 0.1195980416
O   O24       1.0  0.50380  0.15700  0.16482  1.0000 -0.5386585668
C   C24       1.0  0.59500  0.03160  0.03290  1.0000 -0.1151300954
H   H24       1.0  0.65979  0.05254  0.05462  1.0000 0.1195980416
V   V1        1.0  0.48877  0.74439  0.75000  1.0000 0.9820678235
S   S1        1.0  0.96950  0.98475  0.75000  1.0000 -0.0509934537
N   N1        1.0  0.65680  0.82840  0.75000  1.0000 -0.0637869363
C   C25       1.0  0.87670  0.93835  0.75000  1.0000 0.0484863073
V   V2        1.0  0.25562  0.74438  0.75000  1.0000 0.9820678235
S   S2        1.0  0.01525  0.98475  0.75000  1.0000 -0.0509934537
N   N2        1.0  0.17160  0.82840  0.75000  1.0000 -0.0637869363
C   C26       1.0  0.06165  0.93835  0.75000  1.0000 0.0484863073
V   V3        1.0  0.25562  0.51123  0.75000  1.0000 0.9820678235
S   S3        1.0  0.01525  0.03050  0.75000  1.0000 -0.0509934537
N   N3        1.0  0.17160  0.34320  0.75000  1.0000 -0.0637869363
C   C27       1.0  0.06165  0.12330  0.75000  1.0000 0.0484863073
V   V4        1.0  0.51123  0.25562  0.25000  1.0000 0.9820678235
S   S4        1.0  0.03050  0.01525  0.25000  1.0000 -0.0509934537
N   N4        1.0  0.34320  0.17160  0.25000  1.0000 -0.0637869363
C   C28       1.0  0.12330  0.06165  0.25000  1.0000 0.0484863073
V   V5        1.0  0.74438  0.25562  0.25000  1.0000 0.9820678235
S   S5        1.0  0.98475  0.01525  0.25000  1.0000 -0.0509934537
N   N5        1.0  0.82840  0.17160  0.25000  1.0000 -0.0637869363
C   C29       1.0  0.93835  0.06165  0.25000  1.0000 0.0484863073
V   V6        1.0  0.74438  0.48877  0.25000  1.0000 0.9820678235
S   S6        1.0  0.98475  0.96950  0.25000  1.0000 -0.0509934537
N   N6        1.0  0.82840  0.65680  0.25000  1.0000 -0.0637869363
C   C30       1.0  0.93835  0.87670  0.25000  1.0000 0.0484863073
O   O25       1.0  0.33333  0.66667  0.75000  1.0000 -0.7581467231
O   O26       1.0  0.66667  0.33333  0.25000  1.0000 -0.7581467231
C   C31       1.0  0.71400  0.93180  0.75000  1.0000 0.0002012039
H   H25       1.0  0.67800  0.96787  0.75000  1.0000 0.1195980416
C   C32       1.0  0.82010  0.99030  0.75000  1.0000 -0.1108818469
H   H26       1.0  0.85345  0.06237  0.75000  1.0000 0.0562683704
C   C33       1.0  0.06820  0.78220  0.75000  1.0000 0.0002012039
H   H27       1.0  0.03213  0.71013  0.75000  1.0000 0.1195980416
C   C34       1.0  0.00970  0.82980  0.75000  1.0000 -0.1108818469
H   H28       1.0  0.93763  0.79107  0.75000  1.0000 0.0562683704
C   C35       1.0  0.21780  0.28600  0.75000  1.0000 -0.0006538247
H   H29       1.0  0.28987  0.32200  0.75000  1.0000 0.1195980416
C   C36       1.0  0.17020  0.17990  0.75000  1.0000 -0.1108818469
H   H30       1.0  0.20893  0.14655  0.75000  1.0000 0.0562683704
C   C37       1.0  0.28600  0.06820  0.25000  1.0000 -0.0006538247
H   H31       1.0  0.32200  0.03213  0.25000  1.0000 0.1195980416
C   C38       1.0  0.17990  0.00970  0.25000  1.0000 -0.1108818469
H   H32       1.0  0.14655  0.93763  0.25000  1.0000 0.0562683704
C   C39       1.0  0.93180  0.21780  0.25000  1.0000 0.0002012039
H   H33       1.0  0.96787  0.28987  0.25000  1.0000 0.1195980416
C   C40       1.0  0.99030  0.17020  0.25000  1.0000 -0.1108818469
H   H34       1.0  0.06237  0.20893  0.25000  1.0000 0.0562683704
C   C41       1.0  0.78220  0.71400  0.25000  1.0000 0.0002012039
H   H35       1.0  0.71013  0.67800  0.25000  1.0000 0.1195980416
C   C42       1.0  0.82980  0.82010  0.25000  1.0000 -0.1108818469
H   H36       1.0  0.79107  0.85345  0.25000  1.0000 0.0562683704
C   C43       1.0  0.93180  0.71400  0.25000  1.0000 0.0002012039
H   H37       1.0  0.96787  0.67800  0.25000  1.0000 0.1195980416
C   C44       1.0  0.99030  0.82010  0.25000  1.0000 -0.1108818469
H   H38       1.0  0.06237  0.85345  0.25000  1.0000 0.0562683704
C   C45       1.0  0.78220  0.06820  0.25000  1.0000 0.0002012039
H   H39       1.0  0.71013  0.03213  0.25000  1.0000 0.1195980416
C   C46       1.0  0.82980  0.00970  0.25000  1.0000 -0.1108818469
H   H40       1.0  0.79107  0.93763  0.25000  1.0000 0.0562683704
C   C47       1.0  0.28600  0.21780  0.25000  1.0000 -0.0006538247
H   H41       1.0  0.32200  0.28987  0.25000  1.0000 0.1195980416
C   C48       1.0  0.17990  0.17020  0.25000  1.0000 -0.1108818469
H   H42       1.0  0.14655  0.20893  0.25000  1.0000 0.0562683704
C   C49       1.0  0.06820  0.28600  0.75000  1.0000 -0.0006538247
H   H43       1.0  0.03213  0.32200  0.75000  1.0000 0.1195980416
C   C50       1.0  0.00970  0.17990  0.75000  1.0000 -0.1108818469
H   H44       1.0  0.93763  0.14655  0.75000  1.0000 0.0562683704
C   C51       1.0  0.21780  0.93180  0.75000  1.0000 0.0002012039
H   H45       1.0  0.28987  0.96787  0.75000  1.0000 0.1195980416
C   C52       1.0  0.17020  0.99030  0.75000  1.0000 -0.1108818469
H   H46       1.0  0.20893  0.06237  0.75000  1.0000 0.0562683704
C   C53       1.0  0.71400  0.78220  0.75000  1.0000 0.0002012039
H   H47       1.0  0.67800  0.71013  0.75000  1.0000 0.1195980416
C   C54       1.0  0.82010  0.82980  0.75000  1.0000 -0.1108818469
H   H48       1.0  0.85345  0.79107  0.75000  1.0000 0.0562683704
C   C55       1.0  0.43400  0.56600  0.63760  1.0000 0.5802187125
C   C56       1.0  0.46830  0.53170  0.56650  1.0000 -0.0186606173
C   C57       1.0  0.43400  0.86800  0.63760  1.0000 0.5802187125
C   C58       1.0  0.46830  0.93660  0.56650  1.0000 -0.0186606173
C   C59       1.0  0.13200  0.56600  0.63760  1.0000 0.5802187125
C   C60       1.0  0.06340  0.53170  0.56650  1.0000 -0.0186606173
C   C61       1.0  0.56600  0.43400  0.13760  1.0000 0.5802187125
C   C62       1.0  0.53170  0.46830  0.06650  1.0000 -0.0186606173
C   C63       1.0  0.56600  0.13200  0.13760  1.0000 0.5802187125
C   C64       1.0  0.53170  0.06340  0.06650  1.0000 -0.0186606173
C   C65       1.0  0.86800  0.43400  0.13760  1.0000 0.5802187125
C   C66       1.0  0.93660  0.46830  0.06650  1.0000 -0.0186606173
C   C67       1.0  0.56600  0.43400  0.36240  1.0000 0.5802187125
C   C68       1.0  0.53170  0.46830  0.43350  1.0000 -0.0186606173
C   C69       1.0  0.86800  0.43400  0.36240  1.0000 0.5802187125
C   C70       1.0  0.93660  0.46830  0.43350  1.0000 -0.0186606173
C   C71       1.0  0.56600  0.13200  0.36240  1.0000 0.5802187125
C   C72       1.0  0.53170  0.06340  0.43350  1.0000 -0.0186606173
C   C73       1.0  0.43400  0.56600  0.86240  1.0000 0.5802187125
C   C74       1.0  0.46830  0.53170  0.93350  1.0000 -0.0186606173
C   C75       1.0  0.13200  0.56600  0.86240  1.0000 0.5802187125
C   C76       1.0  0.06340  0.53170  0.93350  1.0000 -0.0186606173
C   C77       1.0  0.43400  0.86800  0.86240  1.0000 0.5802187125
C   C78       1.0  0.46830  0.93660  0.93350  1.0000 -0.0186606173
C   C79       1.0  0.71120  0.85560  0.68540  1.0000 0.0252946378
H   H49       1.0  0.67467  0.83734  0.63846  1.0000 0.1074280131
C   C80       1.0  0.82270  0.91135  0.68060  1.0000 -0.1255234827
H   H50       1.0  0.85680  0.92840  0.63260  1.0000 0.103194135
C   C81       1.0  0.14440  0.85560  0.68540  1.0000 0.0252946378
H   H51       1.0  0.16266  0.83734  0.63846  1.0000 0.1074280131
C   C82       1.0  0.08865  0.91135  0.68060  1.0000 -0.1255234827
H   H52       1.0  0.07160  0.92840  0.63260  1.0000 0.103194135
C   C83       1.0  0.14440  0.28880  0.68540  1.0000 0.0252946378
H   H53       1.0  0.16266  0.32533  0.63846  1.0000 0.1074280131
C   C84       1.0  0.08865  0.17730  0.68060  1.0000 -0.1255234827
H   H54       1.0  0.07160  0.14320  0.63260  1.0000 0.103194135
C   C85       1.0  0.28880  0.14440  0.18540  1.0000 0.0252946378
H   H55       1.0  0.32533  0.16266  0.13846  1.0000 0.1074280131
C   C86       1.0  0.17730  0.08865  0.18060  1.0000 -0.1255234827
H   H56       1.0  0.14320  0.07160  0.13260  1.0000 0.103194135
C   C87       1.0  0.85560  0.14440  0.18540  1.0000 0.0252946378
H   H57       1.0  0.83733  0.16266  0.13846  1.0000 0.1074280131
C   C88       1.0  0.91135  0.08865  0.18060  1.0000 -0.1255234827
H   H58       1.0  0.92840  0.07160  0.13260  1.0000 0.103194135
C   C89       1.0  0.85560  0.71120  0.18540  1.0000 0.0252946378
H   H59       1.0  0.83734  0.67467  0.13846  1.0000 0.1074280131
C   C90       1.0  0.91135  0.82270  0.18060  1.0000 -0.1255234827
H   H60       1.0  0.92840  0.85680  0.13260  1.0000 0.103194135
C   C91       1.0  0.85560  0.71120  0.31460  1.0000 0.0252946378
H   H61       1.0  0.83733  0.67467  0.36154  1.0000 0.1074280131
C   C92       1.0  0.91135  0.82270  0.31940  1.0000 -0.1255234827
H   H62       1.0  0.92840  0.85680  0.36740  1.0000 0.103194135
C   C93       1.0  0.85560  0.14440  0.31460  1.0000 0.0252946378
H   H63       1.0  0.83734  0.16266  0.36154  1.0000 0.1074280131
C   C94       1.0  0.91135  0.08865  0.31940  1.0000 -0.1255234827
H   H64       1.0  0.92840  0.07160  0.36740  1.0000 0.103194135
C   C95       1.0  0.28880  0.14440  0.31460  1.0000 0.0252946378
H   H65       1.0  0.32533  0.16266  0.36154  1.0000 0.1074280131
C   C96       1.0  0.17730  0.08865  0.31940  1.0000 -0.1255234827
H   H66       1.0  0.14320  0.07160  0.36740  1.0000 0.103194135
C   C97       1.0  0.14440  0.28880  0.81460  1.0000 0.0252946378
H   H67       1.0  0.16266  0.32533  0.86154  1.0000 0.1074280131
C   C98       1.0  0.08865  0.17730  0.81940  1.0000 -0.1255234827
H   H68       1.0  0.07160  0.14320  0.86740  1.0000 0.103194135
C   C99       1.0  0.14440  0.85560  0.81460  1.0000 0.0252946378
H   H69       1.0  0.16266  0.83734  0.86154  1.0000 0.1074280131
C   C100      1.0  0.08865  0.91135  0.81940  1.0000 -0.1255234827
H   H70       1.0  0.07160  0.92840  0.86740  1.0000 0.103194135
C   C101      1.0  0.71120  0.85560  0.81460  1.0000 0.0252946378
H   H71       1.0  0.67467  0.83734  0.86154  1.0000 0.1074280131
C   C102      1.0  0.82270  0.91135  0.81940  1.0000 -0.1255234827
H   H72       1.0  0.85680  0.92840  0.86740  1.0000 0.103194135
  Co  Co1       1.0  0.48877  0.74439  0.75000  1.0000
  Co  Co2       1.0  0.25562  0.74438  0.75000  1.0000
  Co  Co3       1.0  0.25562  0.51123  0.75000  1.0000
  Co  Co4       1.0  0.51123  0.25562  0.25000  1.0000
  Co  Co5       1.0  0.74438  0.25562  0.25000  1.0000
  Co  Co6       1.0  0.74438  0.48877  0.25000  1.0000
