# DDEC6 charges by PACMAN v1.1 (https://github.com/mtap-research/PACMAN-charge/)
data_YUYLIP_ion_pacman
_symmetry_space_group_name_H-M   'P 1'
_cell_length_a   14.51960000
_cell_length_b   23.36700000
_cell_length_c   15.60420000
_cell_angle_alpha   90.00000000
_cell_angle_beta   107.47500000
_cell_angle_gamma   90.00000000
_symmetry_Int_Tables_number   1
_chemical_formula_structural   Cd5H64C88(N3O13)2
_chemical_formula_sum   'Cd10 H128 C176 N12 O52'
_cell_volume   5049.84819650
_cell_formula_units_Z   2
loop_
 _symmetry_equiv_pos_site_id
 _symmetry_equiv_pos_as_xyz
  1  'x, y, z'
loop_
 _atom_site_type_symbol
 _atom_site_label
 _atom_site_symmetry_multiplicity
 _atom_site_fract_x
 _atom_site_fract_y
 _atom_site_fract_z
 _atom_site_occupancy
 _atom_site_charge
Cd  Cd1  1  0.25657000  0.94191000  0.91613000  1.0 0.9906152574
Cd  Cd2  1  0.74343000  0.44191000  0.58387000  1.0 0.9906152574
Cd  Cd3  1  0.74343000  0.05809000  0.08387000  1.0 0.9906152574
Cd  Cd4  1  0.25657000  0.55809000  0.41613000  1.0 0.9906152574
Cd  Cd5  1  0.50000000  0.00000000  0.00000000  1.0 1.0864464131
Cd  Cd6  1  0.50000000  0.50000000  0.50000000  1.0 1.0864464131
Cd  Cd7  1  0.23350000  0.80622000  0.80511000  1.0 1.0275368777
Cd  Cd8  1  0.76650000  0.30622000  0.69489000  1.0 1.0275368777
Cd  Cd9  1  0.76650000  0.19378000  0.19489000  1.0 1.0275368777
Cd  Cd10  1  0.23350000  0.69378000  0.30511000  1.0 1.0275368777
H  H1  1  0.20810000  0.97300000  0.19720000  1.0 0.1291680498
H  H2  1  0.79190000  0.47300000  0.30280000  1.0 0.1291680498
H  H3  1  0.79190000  0.02700000  0.80280000  1.0 0.1291680498
H  H4  1  0.20810000  0.52700000  0.69720000  1.0 0.1291680498
H  H5  1  0.46670000  0.04420000  0.22750000  1.0 0.1291680498
H  H6  1  0.53330000  0.54420000  0.27250000  1.0 0.1291680498
H  H7  1  0.53330000  0.95580000  0.77250000  1.0 0.1291680498
H  H8  1  0.46670000  0.45580000  0.72750000  1.0 0.1291680498
H  H9  1  0.20000000  0.13560000  0.86360000  1.0 0.1370846716
H  H10  1  0.80000000  0.63560000  0.63640000  1.0 0.1370846716
H  H11  1  0.80000000  0.86440000  0.13640000  1.0 0.1370846716
H  H12  1  0.20000000  0.36440000  0.36360000  1.0 0.1370846716
H  H13  1  0.41220000  0.09670000  0.76040000  1.0 0.1291680498
H  H14  1  0.58780000  0.59670000  0.73960000  1.0 0.1291680498
H  H15  1  0.58780000  0.90330000  0.23960000  1.0 0.1291680498
H  H16  1  0.41220000  0.40330000  0.26040000  1.0 0.1291680498
H  H17  1  0.21520000  0.00150000  0.33890000  1.0 0.1291680498
H  H18  1  0.78480000  0.50150000  0.16110000  1.0 0.1291680498
H  H19  1  0.78480000  0.99850000  0.66110000  1.0 0.1291680498
H  H20  1  0.21520000  0.49850000  0.83890000  1.0 0.1291680498
H  H21  1  0.47460000  0.07020000  0.37160000  1.0 0.1291680498
H  H22  1  0.52540000  0.57020000  0.12840000  1.0 0.1291680498
H  H23  1  0.52540000  0.92980000  0.62840000  1.0 0.1291680498
H  H24  1  0.47460000  0.42980000  0.87160000  1.0 0.1291680498
H  H25  1  0.18890000  0.22440000  0.80270000  1.0 0.1291680498
H  H26  1  0.81110000  0.72440000  0.69730000  1.0 0.1291680498
H  H27  1  0.81110000  0.77560000  0.19730000  1.0 0.1291680498
H  H28  1  0.18890000  0.27560000  0.30270000  1.0 0.1291680498
H  H29  1  0.39610000  0.18470000  0.69120000  1.0 0.1222349499
H  H30  1  0.60390000  0.68470000  0.80880000  1.0 0.1222349499
H  H31  1  0.60390000  0.81530000  0.30880000  1.0 0.1222349499
H  H32  1  0.39610000  0.31530000  0.19120000  1.0 0.1222349499
H  H33  1  0.26280000  0.07370000  0.57960000  1.0 0.1291680498
H  H34  1  0.73720000  0.57370000  0.92040000  1.0 0.1291680498
H  H35  1  0.73720000  0.92630000  0.42040000  1.0 0.1291680498
H  H36  1  0.26280000  0.42630000  0.07960000  1.0 0.1291680498
H  H37  1  0.35710000  0.94250000  0.46470000  1.0 0.1222349499
H  H38  1  0.64290000  0.44250000  0.03530000  1.0 0.1222349499
H  H39  1  0.64290000  0.05750000  0.53530000  1.0 0.1222349499
H  H40  1  0.35710000  0.55750000  0.96470000  1.0 0.1222349499
H  H41  1  0.47670000  0.05400000  0.62050000  1.0 0.1291680498
H  H42  1  0.52330000  0.55400000  0.87950000  1.0 0.1291680498
H  H43  1  0.52330000  0.94600000  0.37950000  1.0 0.1291680498
H  H44  1  0.47670000  0.44600000  0.12050000  1.0 0.1291680498
H  H45  1  0.37620000  0.15740000  0.41030000  1.0 0.1370846716
H  H46  1  0.62380000  0.65740000  0.08970000  1.0 0.1370846716
H  H47  1  0.62380000  0.84260000  0.58970000  1.0 0.1370846716
H  H48  1  0.37620000  0.34260000  0.91030000  1.0 0.1370846716
H  H49  1  0.10320000  0.22410000  0.62330000  1.0 0.1291680498
H  H50  1  0.89680000  0.72410000  0.87670000  1.0 0.1291680498
H  H51  1  0.89680000  0.77590000  0.37670000  1.0 0.1291680498
H  H52  1  0.10320000  0.27590000  0.12330000  1.0 0.1291680498
H  H53  1  0.23450000  0.37480000  0.69960000  1.0 0.1222349499
H  H54  1  0.76550000  0.87480000  0.80040000  1.0 0.1222349499
H  H55  1  0.76550000  0.62520000  0.30040000  1.0 0.1291680498
H  H56  1  0.23450000  0.12520000  0.19960000  1.0 0.1222349499
H  H57  1  0.45590000  0.28550000  0.78290000  1.0 0.1291680498
H  H58  1  0.54410000  0.78550000  0.71710000  1.0 0.1291680498
H  H59  1  0.54410000  0.71450000  0.21710000  1.0 0.1291680498
H  H60  1  0.45590000  0.21450000  0.28290000  1.0 0.1291680498
H  H61  1  0.27130000  0.30740000  0.53680000  1.0 0.1370846716
H  H62  1  0.72870000  0.80740000  0.96320000  1.0 0.1370846716
H  H63  1  0.72870000  0.69260000  0.46320000  1.0 0.1370846716
H  H64  1  0.27130000  0.19260000  0.03680000  1.0 0.1370846716
H  H65  1  0.21270000  0.01060000  0.67180000  1.0 0.1291680498
H  H66  1  0.78730000  0.51060000  0.82820000  1.0 0.1291680498
H  H67  1  0.78730000  0.98940000  0.32820000  1.0 0.1291680498
H  H68  1  0.21270000  0.48940000  0.17180000  1.0 0.1291680498
H  H69  1  0.30720000  0.87920000  0.55580000  1.0 0.1222349499
H  H70  1  0.69280000  0.37920000  0.94420000  1.0 0.1222349499
H  H71  1  0.69280000  0.12080000  0.44420000  1.0 0.1222349499
H  H72  1  0.30720000  0.62080000  0.05580000  1.0 0.1222349499
H  H73  1  0.59320000  0.12100000  0.68740000  1.0 0.1222349499
H  H74  1  0.40680000  0.62100000  0.81260000  1.0 0.1222349499
H  H75  1  0.40680000  0.87900000  0.31260000  1.0 0.1222349499
H  H76  1  0.59320000  0.37900000  0.18740000  1.0 0.1222349499
H  H77  1  0.49210000  0.22320000  0.47520000  1.0 0.1291680498
H  H78  1  0.50790000  0.72320000  0.02480000  1.0 0.1291680498
H  H79  1  0.50790000  0.77680000  0.52480000  1.0 0.1291680498
H  H80  1  0.49210000  0.27680000  0.97520000  1.0 0.1291680498
H  H81  1  0.95430000  0.26750000  0.59530000  1.0 0.1291680498
H  H82  1  0.04570000  0.76750000  0.90470000  1.0 0.1291680498
H  H83  1  0.04570000  0.73250000  0.40470000  1.0 0.1291680498
H  H84  1  0.95430000  0.23250000  0.09530000  1.0 0.1291680498
H  H85  1  0.08710000  0.41880000  0.66370000  1.0 0.1291680498
H  H86  1  0.91290000  0.91880000  0.83630000  1.0 0.1291680498
H  H87  1  0.91290000  0.58120000  0.33630000  1.0 0.1291680498
H  H88  1  0.08710000  0.08120000  0.16370000  1.0 0.1291680498
H  H89  1  0.57410000  0.33130000  0.73890000  1.0 0.1291680498
H  H90  1  0.42590000  0.83130000  0.76110000  1.0 0.1291680498
H  H91  1  0.42590000  0.66870000  0.26110000  1.0 0.1291680498
H  H92  1  0.57410000  0.16870000  0.23890000  1.0 0.1291680498
H  H93  1  0.38830000  0.35260000  0.49230000  1.0 0.1222349499
H  H94  1  0.61170000  0.85260000  0.00770000  1.0 0.1222349499
H  H95  1  0.61170000  0.64740000  0.50770000  1.0 0.1222349499
H  H96  1  0.38830000  0.14740000  0.99230000  1.0 0.1222349499
H  H97  1  0.27920000  0.76150000  0.60490000  1.0 0.1370846716
H  H98  1  0.17480000  0.73720000  0.58920000  1.0 0.1470720929
H  H99  1  0.22380000  0.73340000  0.51250000  1.0 0.1370846716
H  H100  1  0.39680000  0.69530000  0.56710000  1.0 0.1470720929
H  H101  1  0.41860000  0.64330000  0.63380000  1.0 0.1291680498
H  H102  1  0.41830000  0.70580000  0.67050000  1.0 0.1291680498
H  H103  1  0.24930000  0.64670000  0.57210000  1.0 0.2755257127
H  H104  1  0.26700000  0.66700000  0.66440000  1.0 0.2677532521
H  H105  1  0.72080000  0.26150000  0.89510000  1.0 0.1370846716
H  H106  1  0.82520000  0.23720000  0.91080000  1.0 0.1470720929
H  H107  1  0.77620000  0.23340000  0.98750000  1.0 0.1370846716
H  H108  1  0.60320000  0.19530000  0.93290000  1.0 0.1470720929
H  H109  1  0.58140000  0.14330000  0.86620000  1.0 0.1291680498
H  H110  1  0.58170000  0.20580000  0.82950000  1.0 0.1291680498
H  H111  1  0.75070000  0.14670000  0.92790000  1.0 0.2755257127
H  H112  1  0.73300000  0.16700000  0.83560000  1.0 0.2677532521
H  H113  1  0.72080000  0.23850000  0.39510000  1.0 0.1370846716
H  H114  1  0.82520000  0.26280000  0.41080000  1.0 0.1470720929
H  H115  1  0.77620000  0.26660000  0.48750000  1.0 0.1370846716
H  H116  1  0.60320000  0.30470000  0.43290000  1.0 0.1470720929
H  H117  1  0.58140000  0.35670000  0.36620000  1.0 0.1291680498
H  H118  1  0.58170000  0.29420000  0.32950000  1.0 0.1291680498
H  H119  1  0.75070000  0.35330000  0.42790000  1.0 0.2755257127
H  H120  1  0.73300000  0.33300000  0.33560000  1.0 0.2677532521
H  H121  1  0.27920000  0.73850000  0.10490000  1.0 0.1370846716
H  H122  1  0.17480000  0.76280000  0.08920000  1.0 0.1470720929
H  H123  1  0.22380000  0.76660000  0.01250000  1.0 0.1370846716
H  H124  1  0.39680000  0.80470000  0.06710000  1.0 0.1470720929
H  H125  1  0.41860000  0.85670000  0.13380000  1.0 0.1291680498
H  H126  1  0.41830000  0.79420000  0.17050000  1.0 0.1291680498
H  H127  1  0.24930000  0.85330000  0.07210000  1.0 0.2755257127
H  H128  1  0.26700000  0.83300000  0.16440000  1.0 0.2677532521
C  C1  1  0.33460000  0.98840000  0.10310000  1.0 0.5836007682
C  C2  1  0.66540000  0.48840000  0.39690000  1.0 0.5836007682
C  C3  1  0.66540000  0.01160000  0.89690000  1.0 0.5836007682
C  C4  1  0.33460000  0.51160000  0.60310000  1.0 0.5836007682
C  C5  1  0.31100000  0.04770000  0.85580000  1.0 0.5686032412
C  C6  1  0.68900000  0.54770000  0.64420000  1.0 0.5686032412
C  C7  1  0.68900000  0.95230000  0.14420000  1.0 0.5686032412
C  C8  1  0.31100000  0.45230000  0.35580000  1.0 0.5686032412
C  C9  1  0.33700000  0.00530000  0.19690000  1.0 -0.029355861
C  C10  1  0.66300000  0.50530000  0.30310000  1.0 -0.029355861
C  C11  1  0.66300000  0.99470000  0.80310000  1.0 -0.029355861
C  C12  1  0.33700000  0.49470000  0.69690000  1.0 -0.029355861
C  C13  1  0.30640000  0.10600000  0.81740000  1.0 -0.0381406645
C  C14  1  0.69360000  0.60600000  0.68260000  1.0 -0.0381406645
C  C15  1  0.69360000  0.89400000  0.18260000  1.0 -0.0381406645
C  C16  1  0.30640000  0.39400000  0.31740000  1.0 -0.0381406645
C  C17  1  0.26190000  0.99290000  0.23190000  1.0 -0.0918760315
C  C18  1  0.73810000  0.49290000  0.26810000  1.0 -0.0918760315
C  C19  1  0.73810000  0.00710000  0.76810000  1.0 -0.0918760315
C  C20  1  0.26190000  0.50710000  0.73190000  1.0 -0.0918760315
C  C21  1  0.41610000  0.03490000  0.25010000  1.0 -0.0918760315
C  C22  1  0.58390000  0.53490000  0.24990000  1.0 -0.0918760315
C  C23  1  0.58390000  0.96510000  0.74990000  1.0 -0.0918760315
C  C24  1  0.41610000  0.46510000  0.75010000  1.0 -0.0918760315
C  C25  1  0.23990000  0.14550000  0.82930000  1.0 -0.0806390668
C  C26  1  0.76010000  0.64550000  0.67070000  1.0 -0.0806390668
C  C27  1  0.76010000  0.85450000  0.17070000  1.0 -0.0806390668
C  C28  1  0.23990000  0.35450000  0.32930000  1.0 -0.0806390668
C  C29  1  0.36540000  0.12200000  0.76700000  1.0 -0.0918760315
C  C30  1  0.63460000  0.62200000  0.73300000  1.0 -0.0918760315
C  C31  1  0.63460000  0.87800000  0.23300000  1.0 -0.0918760315
C  C32  1  0.36540000  0.37800000  0.26700000  1.0 -0.0918760315
C  C33  1  0.26660000  0.00970000  0.31690000  1.0 -0.1804753401
C  C34  1  0.73340000  0.50970000  0.18310000  1.0 -0.1804753401
C  C35  1  0.73340000  0.99030000  0.68310000  1.0 -0.1804753401
C  C36  1  0.26660000  0.49030000  0.81690000  1.0 -0.1804753401
C  C37  1  0.42050000  0.05080000  0.33630000  1.0 -0.188024358
C  C38  1  0.57950000  0.55080000  0.16370000  1.0 -0.188024358
C  C39  1  0.57950000  0.94920000  0.66370000  1.0 -0.188024358
C  C40  1  0.42050000  0.44920000  0.83630000  1.0 -0.188024358
C  C41  1  0.23210000  0.19810000  0.79180000  1.0 -0.1804753401
C  C42  1  0.76790000  0.69810000  0.70820000  1.0 -0.1804753401
C  C43  1  0.76790000  0.80190000  0.20820000  1.0 -0.1804753401
C  C44  1  0.23210000  0.30190000  0.29180000  1.0 -0.1804753401
C  C45  1  0.35650000  0.17490000  0.72600000  1.0 -0.188024358
C  C46  1  0.64350000  0.67490000  0.77400000  1.0 -0.188024358
C  C47  1  0.64350000  0.82510000  0.27400000  1.0 -0.188024358
C  C48  1  0.35650000  0.32510000  0.22600000  1.0 -0.188024358
C  C49  1  0.34650000  0.03860000  0.37120000  1.0 0.1808113562
C  C50  1  0.65350000  0.53860000  0.12880000  1.0 0.1808113562
C  C51  1  0.65350000  0.96140000  0.62880000  1.0 0.1808113562
C  C52  1  0.34650000  0.46140000  0.87120000  1.0 0.1808113562
C  C53  1  0.28860000  0.21320000  0.73700000  1.0 0.1887163123
C  C54  1  0.71140000  0.71320000  0.76300000  1.0 0.1887163123
C  C55  1  0.71140000  0.78680000  0.26300000  1.0 0.1887163123
C  C56  1  0.28860000  0.28680000  0.23700000  1.0 0.1887163123
C  C57  1  0.31650000  0.01430000  0.51350000  1.0 0.1721576838
C  C58  1  0.68350000  0.51430000  0.98650000  1.0 0.1721576838
C  C59  1  0.68350000  0.98570000  0.48650000  1.0 0.1721576838
C  C60  1  0.31650000  0.48570000  0.01350000  1.0 0.1721576838
C  C61  1  0.41680000  0.09740000  0.50560000  1.0 0.1808113562
C  C62  1  0.58320000  0.59740000  0.99440000  1.0 0.1808113562
C  C63  1  0.58320000  0.90260000  0.49440000  1.0 0.1808113562
C  C64  1  0.41680000  0.40260000  0.00560000  1.0 0.1808113562
C  C65  1  0.18270000  0.29380000  0.66780000  1.0 0.1721576838
C  C66  1  0.81730000  0.79380000  0.83220000  1.0 0.1721576838
C  C67  1  0.81730000  0.70620000  0.33220000  1.0 0.1721576838
C  C68  1  0.18270000  0.20620000  0.16780000  1.0 0.1721576838
C  C69  1  0.34980000  0.29210000  0.66550000  1.0 0.1887163123
C  C70  1  0.65020000  0.79210000  0.83450000  1.0 0.1887163123
C  C71  1  0.65020000  0.70790000  0.33450000  1.0 0.1887163123
C  C72  1  0.34980000  0.20790000  0.16550000  1.0 0.1887163123
C  C73  1  0.27220000  0.03460000  0.57510000  1.0 -0.188024358
C  C74  1  0.72780000  0.53460000  0.92490000  1.0 -0.188024358
C  C75  1  0.72780000  0.96540000  0.42490000  1.0 -0.188024358
C  C76  1  0.27220000  0.46540000  0.07510000  1.0 -0.188024358
C  C77  1  0.32850000  0.95650000  0.50640000  1.0 -0.1950969162
C  C78  1  0.67150000  0.45650000  0.99360000  1.0 -0.1950969162
C  C79  1  0.67150000  0.04350000  0.49360000  1.0 -0.1950969162
C  C80  1  0.32850000  0.54350000  0.00640000  1.0 -0.188024358
C  C81  1  0.48080000  0.08770000  0.59040000  1.0 -0.188024358
C  C82  1  0.51920000  0.58770000  0.90960000  1.0 -0.188024358
C  C83  1  0.51920000  0.91230000  0.40960000  1.0 -0.188024358
C  C84  1  0.48080000  0.41230000  0.09040000  1.0 -0.188024358
C  C85  1  0.42120000  0.14910000  0.46530000  1.0 -0.1804753401
C  C86  1  0.57880000  0.64910000  0.03470000  1.0 -0.1804753401
C  C87  1  0.57880000  0.85090000  0.53470000  1.0 -0.1804753401
C  C88  1  0.42120000  0.35090000  0.96530000  1.0 -0.1804753401
C  C89  1  0.09970000  0.26310000  0.63400000  1.0 -0.1804753401
C  C90  1  0.90030000  0.76310000  0.86600000  1.0 -0.1804753401
C  C91  1  0.90030000  0.73690000  0.36600000  1.0 -0.1804753401
C  C92  1  0.09970000  0.23690000  0.13400000  1.0 -0.1804753401
C  C93  1  0.17820000  0.35340000  0.67850000  1.0 -0.1804753401
C  C94  1  0.82180000  0.85340000  0.82150000  1.0 -0.1804753401
C  C95  1  0.82180000  0.64660000  0.32150000  1.0 -0.1804753401
C  C96  1  0.17820000  0.14660000  0.17850000  1.0 -0.1804753401
C  C97  1  0.44190000  0.29930000  0.72450000  1.0 -0.1804753401
C  C98  1  0.55810000  0.79930000  0.77550000  1.0 -0.188024358
C  C99  1  0.55810000  0.70070000  0.27550000  1.0 -0.188024358
C  C100  1  0.44190000  0.20070000  0.22450000  1.0 -0.188024358
C  C101  1  0.33210000  0.31240000  0.57780000  1.0 -0.1804753401
C  C102  1  0.66790000  0.81240000  0.92220000  1.0 -0.1804753401
C  C103  1  0.66790000  0.68760000  0.42220000  1.0 -0.1804753401
C  C104  1  0.33210000  0.18760000  0.07780000  1.0 -0.1804753401
C  C105  1  0.24160000  0.99670000  0.63030000  1.0 -0.0705041817
C  C106  1  0.75840000  0.49670000  0.86970000  1.0 -0.0705041817
C  C107  1  0.75840000  0.00330000  0.36970000  1.0 -0.0705041817
C  C108  1  0.24160000  0.50330000  0.13030000  1.0 -0.0705041817
C  C109  1  0.29810000  0.91830000  0.56100000  1.0 -0.0806390668
C  C110  1  0.70190000  0.41830000  0.93900000  1.0 -0.0806390668
C  C111  1  0.70190000  0.08170000  0.43900000  1.0 -0.0806390668
C  C112  1  0.29810000  0.58170000  0.06100000  1.0 -0.0806390668
C  C113  1  0.55080000  0.12800000  0.63050000  1.0 -0.1001928809
C  C114  1  0.44920000  0.62800000  0.86950000  1.0 -0.1001928809
C  C115  1  0.44920000  0.87200000  0.36950000  1.0 -0.1001928809
C  C116  1  0.55080000  0.37200000  0.13050000  1.0 -0.1001928809
C  C117  1  0.49040000  0.18870000  0.50440000  1.0 -0.0918760315
C  C118  1  0.50960000  0.68870000  0.99560000  1.0 -0.0918760315
C  C119  1  0.50960000  0.81130000  0.49560000  1.0 -0.0918760315
C  C120  1  0.49040000  0.31130000  0.00440000  1.0 -0.0918760315
C  C121  1  0.01040000  0.28920000  0.61540000  1.0 -0.0583906186
C  C122  1  0.98960000  0.78920000  0.88460000  1.0 -0.0583906186
C  C123  1  0.98960000  0.71080000  0.38460000  1.0 -0.0583906186
C  C124  1  0.01040000  0.21080000  0.11540000  1.0 -0.0583906186
C  C125  1  0.09020000  0.37930000  0.65750000  1.0 -0.0806390668
C  C126  1  0.90980000  0.87930000  0.84250000  1.0 -0.0806390668
C  C127  1  0.90980000  0.62070000  0.34250000  1.0 -0.0806390668
C  C128  1  0.09020000  0.12070000  0.15750000  1.0 -0.0806390668
C  C129  1  0.51300000  0.32650000  0.69820000  1.0 -0.0705041817
C  C130  1  0.48700000  0.82650000  0.80180000  1.0 -0.0705041817
C  C131  1  0.48700000  0.67350000  0.30180000  1.0 -0.0705041817
C  C132  1  0.51300000  0.17350000  0.19820000  1.0 -0.0705041817
C  C133  1  0.40220000  0.33940000  0.55100000  1.0 -0.0583906186
C  C134  1  0.59780000  0.83940000  0.94900000  1.0 -0.0583906186
C  C135  1  0.59780000  0.66060000  0.44900000  1.0 -0.0583906186
C  C136  1  0.40220000  0.16060000  0.05100000  1.0 -0.0583906186
C  C137  1  0.25450000  0.93830000  0.62300000  1.0 -0.0195541332
C  C138  1  0.74550000  0.43830000  0.87700000  1.0 -0.0195541332
C  C139  1  0.74550000  0.06170000  0.37700000  1.0 -0.0195541332
C  C140  1  0.25450000  0.56170000  0.12300000  1.0 -0.0195541332
C  C141  1  0.55780000  0.17830000  0.58650000  1.0 -0.029355861
C  C142  1  0.44220000  0.67830000  0.91350000  1.0 -0.029355861
C  C143  1  0.44220000  0.82170000  0.41350000  1.0 -0.029355861
C  C144  1  0.55780000  0.32170000  0.08650000  1.0 -0.029355861
C  C145  1  0.00460000  0.34820000  0.62690000  1.0 -0.029355861
C  C146  1  0.99540000  0.84820000  0.87310000  1.0 -0.029355861
C  C147  1  0.99540000  0.65180000  0.37310000  1.0 -0.029355861
C  C148  1  0.00460000  0.15180000  0.12690000  1.0 -0.029355861
C  C149  1  0.49330000  0.34710000  0.61010000  1.0 -0.0583906186
C  C150  1  0.50670000  0.84710000  0.88990000  1.0 -0.0583906186
C  C151  1  0.50670000  0.65290000  0.38990000  1.0 -0.0583906186
C  C152  1  0.49330000  0.15290000  0.11010000  1.0 -0.0583906186
C  C153  1  0.22520000  0.89790000  0.68520000  1.0 0.5686032412
C  C154  1  0.77480000  0.39790000  0.81480000  1.0 0.5686032412
C  C155  1  0.77480000  0.10210000  0.31480000  1.0 0.5686032412
C  C156  1  0.22520000  0.60210000  0.18520000  1.0 0.5686032412
C  C157  1  0.63680000  0.22030000  0.62710000  1.0 0.5342635003
C  C158  1  0.36320000  0.72030000  0.87290000  1.0 0.5342635003
C  C159  1  0.36320000  0.77970000  0.37290000  1.0 0.5342635003
C  C160  1  0.63680000  0.27970000  0.12710000  1.0 0.5342635003
C  C161  1  0.90930000  0.37790000  0.60830000  1.0 0.5686032412
C  C162  1  0.09070000  0.87790000  0.89170000  1.0 0.5686032412
C  C163  1  0.09070000  0.62210000  0.39170000  1.0 0.5686032412
C  C164  1  0.90930000  0.12210000  0.10830000  1.0 0.5686032412
C  C165  1  0.56480000  0.37900000  0.58080000  1.0 0.587943205
C  C166  1  0.43520000  0.87900000  0.91920000  1.0 0.587943205
C  C167  1  0.43520000  0.62100000  0.41920000  1.0 0.587943205
C  C168  1  0.56480000  0.12100000  0.08080000  1.0 0.587943205
C  C169  1  0.23480000  0.73180000  0.57630000  1.0 -0.2882023963
C  C170  1  0.38870000  0.68030000  0.62170000  1.0 -0.3292600128
C  C171  1  0.76520000  0.23180000  0.92370000  1.0 -0.2882023963
C  C172  1  0.61130000  0.18030000  0.87830000  1.0 -0.3292600128
C  C173  1  0.76520000  0.26820000  0.42370000  1.0 -0.2882023963
C  C174  1  0.61130000  0.31970000  0.37830000  1.0 -0.3292600128
C  C175  1  0.23480000  0.76820000  0.07630000  1.0 -0.2882023963
C  C176  1  0.38870000  0.81970000  0.12170000  1.0 -0.3292600128
N  N1  1  0.35110000  0.05430000  0.46110000  1.0 -0.1804753401
N  N2  1  0.64890000  0.55430000  0.03890000  1.0 -0.1804753401
N  N3  1  0.64890000  0.94570000  0.53890000  1.0 -0.1804753401
N  N4  1  0.35110000  0.44570000  0.96110000  1.0 -0.1804753401
N  N5  1  0.27490000  0.26690000  0.69210000  1.0 -0.1804753401
N  N6  1  0.72510000  0.76690000  0.80790000  1.0 -0.1729014827
N  N7  1  0.72510000  0.73310000  0.30790000  1.0 -0.1729014827
N  N8  1  0.27490000  0.23310000  0.19210000  1.0 -0.1729014827
N  N9  1  0.27640000  0.67470000  0.61120000  1.0 -0.0705041817
N  N10  1  0.72360000  0.17470000  0.88880000  1.0 -0.0705041817
N  N11  1  0.72360000  0.32530000  0.38880000  1.0 -0.0705041817
N  N12  1  0.27640000  0.82530000  0.11120000  1.0 -0.0705041817
O  O1  1  0.27620000  0.94969000  0.06400000  1.0 -0.5594666253
O  O2  1  0.72380000  0.44969000  0.43600000  1.0 -0.5594666253
O  O3  1  0.72380000  0.05031000  0.93600000  1.0 -0.5594666253
O  O4  1  0.27620000  0.55031000  0.56400000  1.0 -0.5594666253
O  O5  1  0.23760000  0.03158000  0.87640000  1.0 -0.50208976
O  O6  1  0.76240000  0.53158000  0.62360000  1.0 -0.50208976
O  O7  1  0.76240000  0.96842000  0.12360000  1.0 -0.50208976
O  O8  1  0.23760000  0.46842000  0.37640000  1.0 -0.50208976
O  O9  1  0.18340000  0.91750000  0.73930000  1.0 -0.5594666253
O  O10  1  0.81660000  0.41750000  0.76070000  1.0 -0.5594666253
O  O11  1  0.81660000  0.08250000  0.26070000  1.0 -0.5594666253
O  O12  1  0.18340000  0.58250000  0.23930000  1.0 -0.5594666253
O  O13  1  0.83310000  0.34707000  0.59420000  1.0 -0.5936930092
O  O14  1  0.16690000  0.84707000  0.90580000  1.0 -0.5936930092
O  O15  1  0.16690000  0.65293000  0.40580000  1.0 -0.5936930092
O  O16  1  0.83310000  0.15293000  0.09420000  1.0 -0.5936930092
O  O17  1  0.90590000  0.43038000  0.60610000  1.0 -0.4782665509
O  O18  1  0.09410000  0.93038000  0.89390000  1.0 -0.4782665509
O  O19  1  0.09410000  0.56962000  0.39390000  1.0 -0.4782665509
O  O20  1  0.90590000  0.06962000  0.10610000  1.0 -0.4782665509
O  O21  1  0.65240000  0.37865000  0.63000000  1.0 -0.5594666253
O  O22  1  0.34760000  0.87865000  0.87000000  1.0 -0.5594666253
O  O23  1  0.34760000  0.62135000  0.37000000  1.0 -0.5594666253
O  O24  1  0.65240000  0.12135000  0.13000000  1.0 -0.5594666253
O  O25  1  0.38910000  0.01472000  0.06930000  1.0 -0.5673762473
O  O26  1  0.61090000  0.51472000  0.43070000  1.0 -0.5673762473
O  O27  1  0.61090000  0.98528000  0.93070000  1.0 -0.5673762473
O  O28  1  0.38910000  0.48528000  0.56930000  1.0 -0.5673762473
O  O29  1  0.38390000  0.01655000  0.86540000  1.0 -0.5787897321
O  O30  1  0.61610000  0.51655000  0.63460000  1.0 -0.5787897321
O  O31  1  0.61610000  0.98345000  0.13460000  1.0 -0.5787897321
O  O32  1  0.38390000  0.48345000  0.36540000  1.0 -0.5787897321
O  O33  1  0.53880000  0.40618000  0.50870000  1.0 -0.5594666253
O  O34  1  0.46120000  0.90618000  0.99130000  1.0 -0.5594666253
O  O35  1  0.46120000  0.59382000  0.49130000  1.0 -0.5594666253
O  O36  1  0.53880000  0.09382000  0.00870000  1.0 -0.5594666253
O  O37  1  0.24760000  0.84630000  0.68040000  1.0 -0.5455799612
O  O38  1  0.75240000  0.34630000  0.81960000  1.0 -0.5455799612
O  O39  1  0.75240000  0.15370000  0.31960000  1.0 -0.5400041255
O  O40  1  0.24760000  0.65370000  0.18040000  1.0 -0.5455799612
O  O41  1  0.67970000  0.21940000  0.70870000  1.0 -0.5267975144
O  O42  1  0.32030000  0.71940000  0.79130000  1.0 -0.5267975144
O  O43  1  0.32030000  0.78060000  0.29130000  1.0 -0.5267975144
O  O44  1  0.67970000  0.28060000  0.20870000  1.0 -0.5267975144
O  O45  1  0.65980000  0.25560000  0.57680000  1.0 -0.5228283438
O  O46  1  0.34020000  0.75560000  0.92320000  1.0 -0.5228283438
O  O47  1  0.34020000  0.74440000  0.42320000  1.0 -0.5228283438
O  O48  1  0.65980000  0.24440000  0.07680000  1.0 -0.5228283438
O  O49  1  0.09580000  0.75950000  0.73210000  1.0 -0.5400041255
O  O50  1  0.90420000  0.25950000  0.76790000  1.0 -0.5228283438
O  O51  1  0.90420000  0.24050000  0.26790000  1.0 -0.5267975144
O  O52  1  0.09580000  0.74050000  0.23210000  1.0 -0.5267975144
