# DDEC6 charges by PACMAN v1.1 (https://github.com/mtap-research/PACMAN-charge/)
data_YUZCED_ASR_pacman
_symmetry_space_group_name_H-M   'P 1'
_cell_length_a   9.76820000
_cell_length_b   9.76820000
_cell_length_c   20.10000000
_cell_angle_alpha   90.00000000
_cell_angle_beta   90.00000000
_cell_angle_gamma   120.00000000
_symmetry_Int_Tables_number   1
_chemical_formula_structural   ZnH6C5N8
_chemical_formula_sum   'Zn6 H36 C30 N48'
_cell_volume   1660.94700243
_cell_formula_units_Z   6
loop_
 _symmetry_equiv_pos_site_id
 _symmetry_equiv_pos_as_xyz
  1  'x, y, z'
loop_
 _atom_site_type_symbol
 _atom_site_label
 _atom_site_symmetry_multiplicity
 _atom_site_fract_x
 _atom_site_fract_y
 _atom_site_fract_z
 _atom_site_occupancy
 _atom_site_charge
Zn  Zn1  1  0.95877000  0.51032000  0.41565000  1.0 0.6710775532
Zn  Zn2  1  0.48968000  0.44845000  0.74898000  1.0 0.6710775532
Zn  Zn3  1  0.55155000  0.04123000  0.08232000  1.0 0.6710775532
Zn  Zn4  1  0.51032000  0.95877000  0.58435000  1.0 0.6710775532
Zn  Zn5  1  0.44845000  0.48968000  0.25102000  1.0 0.6710775532
Zn  Zn6  1  0.04123000  0.55155000  0.91768000  1.0 0.6710775532
H  H1  1  0.00090000  0.66720000  0.55740000  1.0 0.3092696406
H  H2  1  0.33280000  0.33370000  0.89073000  1.0 0.3092696406
H  H3  1  0.66630000  0.99910000  0.22407000  1.0 0.3092696406
H  H4  1  0.66720000  0.00090000  0.44260000  1.0 0.3092696406
H  H5  1  0.33370000  0.33280000  0.10927000  1.0 0.3092696406
H  H6  1  0.99910000  0.66630000  0.77593000  1.0 0.3092696406
H  H7  1  0.13140000  0.80620000  0.59210000  1.0 0.3092696406
H  H8  1  0.19380000  0.32520000  0.92543000  1.0 0.3092696406
H  H9  1  0.67480000  0.86860000  0.25877000  1.0 0.3092696406
H  H10  1  0.80620000  0.13140000  0.40790000  1.0 0.3092696406
H  H11  1  0.32520000  0.19380000  0.07457000  1.0 0.3092696406
H  H12  1  0.86860000  0.67480000  0.74123000  1.0 0.3092696406
H  H13  1  0.99550000  0.10450000  0.22360000  1.0 0.2883076705
H  H14  1  0.89550000  0.89100000  0.55693000  1.0 0.2883076705
H  H15  1  0.10900000  0.00450000  0.89027000  1.0 0.2883076705
H  H16  1  0.10450000  0.99550000  0.77640000  1.0 0.2883076705
H  H17  1  0.89100000  0.89550000  0.44307000  1.0 0.2883076705
H  H18  1  0.00450000  0.10900000  0.10973000  1.0 0.2883076705
H  H19  1  0.16540000  0.16450000  0.22840000  1.0 0.2793440509
H  H20  1  0.83550000  0.00090000  0.56173000  1.0 0.2793440509
H  H21  1  0.99910000  0.83460000  0.89507000  1.0 0.2793440509
H  H22  1  0.16450000  0.16540000  0.77160000  1.0 0.2793440509
H  H23  1  0.00090000  0.83550000  0.43827000  1.0 0.2793440509
H  H24  1  0.83460000  0.99910000  0.10493000  1.0 0.2793440509
H  H25  1  0.30920000  0.74290000  0.31650000  1.0 0.1578862754
H  H26  1  0.25710000  0.56630000  0.64983000  1.0 0.1578862754
H  H27  1  0.43370000  0.69080000  0.98317000  1.0 0.1578862754
H  H28  1  0.74290000  0.30920000  0.68350000  1.0 0.1578862754
H  H29  1  0.56630000  0.25710000  0.35017000  1.0 0.1578862754
H  H30  1  0.69080000  0.43370000  0.01683000  1.0 0.1578862754
H  H31  1  0.42860000  0.69180000  0.34600000  1.0 0.1578862754
H  H32  1  0.30820000  0.73680000  0.67933000  1.0 0.1578862754
H  H33  1  0.26320000  0.57140000  0.01267000  1.0 0.1578862754
H  H34  1  0.69180000  0.42860000  0.65400000  1.0 0.1578862754
H  H35  1  0.73680000  0.30820000  0.32067000  1.0 0.1578862754
H  H36  1  0.57140000  0.26320000  0.98733000  1.0 0.1578862754
C  C1  1  0.20440000  0.76570000  0.50600000  1.0 0.5255229312
C  C2  1  0.23430000  0.43870000  0.83933000  1.0 0.5255229312
C  C3  1  0.56130000  0.79560000  0.17267000  1.0 0.5255229312
C  C4  1  0.76570000  0.20440000  0.49400000  1.0 0.5255229312
C  C5  1  0.43870000  0.23430000  0.16067000  1.0 0.5255229312
C  C6  1  0.79560000  0.56130000  0.82733000  1.0 0.5255229312
C  C7  1  0.30350000  0.72960000  0.41780000  1.0 0.3626626469
C  C8  1  0.27040000  0.57390000  0.75113000  1.0 0.3626626469
C  C9  1  0.42610000  0.69650000  0.08447000  1.0 0.3626626469
C  C10  1  0.72960000  0.30350000  0.58220000  1.0 0.3626626469
C  C11  1  0.57390000  0.27040000  0.24887000  1.0 0.3626626469
C  C12  1  0.69650000  0.42610000  0.91553000  1.0 0.3626626469
C  C13  1  0.32030000  0.67510000  0.35010000  1.0 -0.400274134
C  C14  1  0.32490000  0.64520000  0.68343000  1.0 -0.400274134
C  C15  1  0.35480000  0.67970000  0.01677000  1.0 -0.400274134
C  C16  1  0.67510000  0.32030000  0.64990000  1.0 -0.400274134
C  C17  1  0.64520000  0.32490000  0.31657000  1.0 -0.400274134
C  C18  1  0.67970000  0.35480000  0.98323000  1.0 -0.400274134
C  C19  1  0.20580000  0.50680000  0.33380000  1.0 0.3659771718
C  C20  1  0.49320000  0.69900000  0.66713000  1.0 0.3659771718
C  C21  1  0.30100000  0.79420000  0.00047000  1.0 0.3659771718
C  C22  1  0.50680000  0.20580000  0.66620000  1.0 0.3659771718
C  C23  1  0.69900000  0.49320000  0.33287000  1.0 0.3659771718
C  C24  1  0.79420000  0.30100000  0.99953000  1.0 0.3659771718
C  C25  1  0.09990000  0.27880000  0.29000000  1.0 0.5156295535
C  C26  1  0.72120000  0.82110000  0.62333000  1.0 0.5156295535
C  C27  1  0.17890000  0.90010000  0.95667000  1.0 0.5156295535
C  C28  1  0.27880000  0.09990000  0.71000000  1.0 0.5156295535
C  C29  1  0.82110000  0.72120000  0.37667000  1.0 0.5156295535
C  C30  1  0.90010000  0.17890000  0.04333000  1.0 0.5156295535
N  N1  1  0.36130000  0.84920000  0.51170000  1.0 -0.3345674289
N  N2  1  0.15080000  0.51210000  0.84503000  1.0 -0.3345674289
N  N3  1  0.48790000  0.63870000  0.17837000  1.0 -0.3345674289
N  N4  1  0.84920000  0.36130000  0.48830000  1.0 -0.3345674289
N  N5  1  0.51210000  0.15080000  0.15497000  1.0 -0.3345674289
N  N6  1  0.63870000  0.48790000  0.82163000  1.0 -0.3345674289
N  N7  1  0.42640000  0.82580000  0.45370000  1.0 -0.3009852432
N  N8  1  0.17420000  0.60060000  0.78703000  1.0 -0.3009852432
N  N9  1  0.39940000  0.57360000  0.12037000  1.0 -0.3009852432
N  N10  1  0.82580000  0.42640000  0.54630000  1.0 -0.3009852432
N  N11  1  0.60060000  0.17420000  0.21297000  1.0 -0.3009852432
N  N12  1  0.57360000  0.39940000  0.87963000  1.0 -0.3009852432
N  N13  1  0.16150000  0.68930000  0.44760000  1.0 -0.488260186
N  N14  1  0.31070000  0.47220000  0.78093000  1.0 -0.488260186
N  N15  1  0.52780000  0.83850000  0.11427000  1.0 -0.488260186
N  N16  1  0.68930000  0.16150000  0.55240000  1.0 -0.488260186
N  N17  1  0.47220000  0.31070000  0.21907000  1.0 -0.488260186
N  N18  1  0.83850000  0.52780000  0.88573000  1.0 -0.488260186
N  N19  1  0.09890000  0.76170000  0.55120000  1.0 -0.6566170218
N  N20  1  0.23830000  0.33720000  0.88453000  1.0 -0.6566170218
N  N21  1  0.66280000  0.90110000  0.21787000  1.0 -0.6566170218
N  N22  1  0.76170000  0.09890000  0.44880000  1.0 -0.6566170218
N  N23  1  0.33720000  0.23830000  0.11547000  1.0 -0.6566170218
N  N24  1  0.90110000  0.66280000  0.78213000  1.0 -0.6566170218
N  N25  1  0.24020000  0.41770000  0.29290000  1.0 -0.4778110745
N  N26  1  0.58230000  0.82250000  0.62623000  1.0 -0.4778110745
N  N27  1  0.17750000  0.75980000  0.95957000  1.0 -0.4778110745
N  N28  1  0.41770000  0.24020000  0.70710000  1.0 -0.4778110745
N  N29  1  0.82250000  0.58230000  0.37377000  1.0 -0.4778110745
N  N30  1  0.75980000  0.17750000  0.04043000  1.0 -0.4778110745
N  N31  1  0.05790000  0.42730000  0.35480000  1.0 -0.2612125439
N  N32  1  0.57270000  0.63060000  0.68813000  1.0 -0.2612125439
N  N33  1  0.36940000  0.94210000  0.02147000  1.0 -0.2612125439
N  N34  1  0.42730000  0.05790000  0.64520000  1.0 -0.2612125439
N  N35  1  0.63060000  0.57270000  0.31187000  1.0 -0.2612125439
N  N36  1  0.94210000  0.36940000  0.97853000  1.0 -0.2612125439
N  N37  1  0.98600000  0.27570000  0.32690000  1.0 -0.3728541546
N  N38  1  0.72430000  0.71030000  0.66023000  1.0 -0.3728541546
N  N39  1  0.28970000  0.01400000  0.99357000  1.0 -0.3728541546
N  N40  1  0.27570000  0.98600000  0.67310000  1.0 -0.3728541546
N  N41  1  0.71030000  0.72430000  0.33977000  1.0 -0.3728541546
N  N42  1  0.01400000  0.28970000  0.00643000  1.0 -0.3728541546
N  N43  1  0.08240000  0.15110000  0.25340000  1.0 -0.6502516233
N  N44  1  0.84890000  0.93130000  0.58673000  1.0 -0.6502516233
N  N45  1  0.06870000  0.91760000  0.92007000  1.0 -0.6502516233
N  N46  1  0.15110000  0.08240000  0.74660000  1.0 -0.6502516233
N  N47  1  0.93130000  0.84890000  0.41327000  1.0 -0.6502516233
N  N48  1  0.91760000  0.06870000  0.07993000  1.0 -0.6502516233
