# DDEC6 charges by PACMAN v1.1 (https://github.com/mtap-research/PACMAN-charge/)
data_YUZLEN_ASR_pacman
_symmetry_space_group_name_H-M   'P 1'
_cell_length_a   4.69000000
_cell_length_b   20.43480000
_cell_length_c   10.94280000
_cell_angle_alpha   90.00000000
_cell_angle_beta   96.93980000
_cell_angle_gamma   90.00000000
_symmetry_Int_Tables_number   1
_chemical_formula_structural   CuH4C8N3O4
_chemical_formula_sum   'Cu4 H16 C32 N12 O16'
_cell_volume   1041.06582489
_cell_formula_units_Z   4
loop_
 _symmetry_equiv_pos_site_id
 _symmetry_equiv_pos_as_xyz
  1  'x, y, z'
loop_
 _atom_site_type_symbol
 _atom_site_label
 _atom_site_symmetry_multiplicity
 _atom_site_fract_x
 _atom_site_fract_y
 _atom_site_fract_z
 _atom_site_occupancy
 _atom_site_charge
Cu  Cu1  1  0.36220000  0.83630000  0.96908000  1.0 0.7099766748
Cu  Cu2  1  0.63780000  0.33630000  0.53092000  1.0 0.7099766748
Cu  Cu3  1  0.63780000  0.16370000  0.03092000  1.0 0.7099766748
Cu  Cu4  1  0.36220000  0.66370000  0.46908000  1.0 0.7099766748
H  H1  1  0.31240000  0.58680000  0.95920000  1.0 0.120250033
H  H2  1  0.52520000  0.68510000  0.04790000  1.0 0.120250033
H  H3  1  0.68120000  0.93030000  0.85950000  1.0 0.120250033
H  H4  1  0.19690000  0.95720000  0.14740000  1.0 0.120250033
H  H5  1  0.68760000  0.08680000  0.54080000  1.0 0.120250033
H  H6  1  0.47480000  0.18510000  0.45210000  1.0 0.120250033
H  H7  1  0.31880000  0.43030000  0.64050000  1.0 0.120250033
H  H8  1  0.80310000  0.45720000  0.35260000  1.0 0.120250033
H  H9  1  0.68760000  0.41320000  0.04080000  1.0 0.120250033
H  H10  1  0.47480000  0.31490000  0.95210000  1.0 0.120250033
H  H11  1  0.31880000  0.06970000  0.14050000  1.0 0.120250033
H  H12  1  0.80310000  0.04280000  0.85260000  1.0 0.120250033
H  H13  1  0.31240000  0.91320000  0.45920000  1.0 0.120250033
H  H14  1  0.52520000  0.81490000  0.54790000  1.0 0.120250033
H  H15  1  0.68120000  0.56970000  0.35950000  1.0 0.120250033
H  H16  1  0.19690000  0.54280000  0.64740000  1.0 0.120250033
C  C1  1  0.15000000  0.74330000  0.80430000  1.0 0.0405670784
C  C2  1  0.00940000  0.68870000  0.75260000  1.0 0.0658294873
C  C3  1  0.28330000  0.62860000  0.91010000  1.0 0.0069801334
C  C4  1  0.38880000  0.68810000  0.96800000  1.0 0.120250033
C  C5  1  0.10720000  0.81200000  0.74130000  1.0 0.5159352737
C  C6  1  0.80950000  0.67920000  0.63490000  1.0 0.5321168916
C  C7  1  0.58830000  0.95880000  0.91690000  1.0 0.0631128026
C  C8  1  0.32640000  0.97620000  0.08750000  1.0 0.0069801334
C  C9  1  0.85000000  0.24330000  0.69570000  1.0 0.0405670784
C  C10  1  0.99060000  0.18870000  0.74740000  1.0 0.0658294873
C  C11  1  0.71670000  0.12860000  0.58990000  1.0 0.0069801334
C  C12  1  0.61120000  0.18810000  0.53200000  1.0 0.120250033
C  C13  1  0.89280000  0.31200000  0.75870000  1.0 0.5159352737
C  C14  1  0.19050000  0.17920000  0.86510000  1.0 0.5321168916
C  C15  1  0.41170000  0.45880000  0.58310000  1.0 0.0631128026
C  C16  1  0.67360000  0.47620000  0.41250000  1.0 0.0069801334
C  C17  1  0.85000000  0.25670000  0.19570000  1.0 0.0405670784
C  C18  1  0.99060000  0.31130000  0.24740000  1.0 0.0658294873
C  C19  1  0.71670000  0.37140000  0.08990000  1.0 0.0069801334
C  C20  1  0.61120000  0.31190000  0.03200000  1.0 0.120250033
C  C21  1  0.89280000  0.18800000  0.25870000  1.0 0.5159352737
C  C22  1  0.19050000  0.32080000  0.36510000  1.0 0.5321168916
C  C23  1  0.41170000  0.04120000  0.08310000  1.0 0.0631128026
C  C24  1  0.67360000  0.02380000  0.91250000  1.0 0.0069801334
C  C25  1  0.15000000  0.75670000  0.30430000  1.0 0.0405670784
C  C26  1  0.00940000  0.81130000  0.25260000  1.0 0.0658294873
C  C27  1  0.28330000  0.87140000  0.41010000  1.0 0.0069801334
C  C28  1  0.38880000  0.81190000  0.46800000  1.0 0.120250033
C  C29  1  0.10720000  0.68800000  0.24130000  1.0 0.5159352737
C  C30  1  0.80950000  0.82080000  0.13490000  1.0 0.5321168916
C  C31  1  0.58830000  0.54120000  0.41690000  1.0 0.0631128026
C  C32  1  0.32640000  0.52380000  0.58750000  1.0 0.0069801334
N  N1  1  0.30740000  0.74290000  0.91500000  1.0 -0.2174261344
N  N2  1  0.09410000  0.62820000  0.79810000  1.0 -0.2550601048
N  N3  1  0.44080000  0.93500000  0.00400000  1.0 -0.2008188425
N  N4  1  0.69260000  0.24290000  0.58500000  1.0 -0.2174261344
N  N5  1  0.90590000  0.12820000  0.70190000  1.0 -0.2539359613
N  N6  1  0.55920000  0.43500000  0.49600000  1.0 -0.2008188425
N  N7  1  0.69260000  0.25710000  0.08500000  1.0 -0.2174261344
N  N8  1  0.90590000  0.37180000  0.20190000  1.0 -0.2539359613
N  N9  1  0.55920000  0.06500000  0.99600000  1.0 -0.2008188425
N  N10  1  0.30740000  0.75710000  0.41500000  1.0 -0.2174261344
N  N11  1  0.09410000  0.87180000  0.29810000  1.0 -0.2550601048
N  N12  1  0.44080000  0.56500000  0.50400000  1.0 -0.2008188425
O  O1  1  0.19020000  0.85800000  0.79910000  1.0 -0.4498637302
O  O2  1  0.94680000  0.81500000  0.63860000  1.0 -0.5177011771
O  O3  1  0.57500000  0.68610000  0.62880000  1.0 -0.3213871403
O  O4  1  0.94370000  0.66330000  0.53970000  1.0 -0.5810535831
O  O5  1  0.80980000  0.35800000  0.70090000  1.0 -0.4498637302
O  O6  1  0.05320000  0.31500000  0.86140000  1.0 -0.5177011771
O  O7  1  0.42500000  0.18610000  0.87120000  1.0 -0.3213871403
O  O8  1  0.05630000  0.16330000  0.96030000  1.0 -0.5810535831
O  O9  1  0.80980000  0.14200000  0.20090000  1.0 -0.4498637302
O  O10  1  0.05320000  0.18500000  0.36140000  1.0 -0.5177011771
O  O11  1  0.42500000  0.31390000  0.37120000  1.0 -0.3213871403
O  O12  1  0.05630000  0.33670000  0.46030000  1.0 -0.5810535831
O  O13  1  0.19020000  0.64200000  0.29910000  1.0 -0.4498637302
O  O14  1  0.94680000  0.68500000  0.13860000  1.0 -0.5177011771
O  O15  1  0.57500000  0.81390000  0.12880000  1.0 -0.3213871403
O  O16  1  0.94370000  0.83670000  0.03970000  1.0 -0.5810535831
