# DDEC6 charges by PACMAN v1.1 (https://github.com/mtap-research/PACMAN-charge/)
data_YUZNEP_ASR_pacman
_symmetry_space_group_name_H-M   'P 1'
_cell_length_a   17.05270000
_cell_length_b   17.05270000
_cell_length_c   17.05270000
_cell_angle_alpha   113.87300000
_cell_angle_beta   113.87300000
_cell_angle_gamma   113.87300000
_symmetry_Int_Tables_number   1
_chemical_formula_structural   K5Zr2(CO4)4
_chemical_formula_sum   'K30 Zr12 C24 O96'
_cell_volume   3040.90878171
_cell_formula_units_Z   6
loop_
 _symmetry_equiv_pos_site_id
 _symmetry_equiv_pos_as_xyz
  1  'x, y, z'
loop_
 _atom_site_type_symbol
 _atom_site_label
 _atom_site_symmetry_multiplicity
 _atom_site_fract_x
 _atom_site_fract_y
 _atom_site_fract_z
 _atom_site_occupancy
 _atom_site_charge
K  K1  1  0.02800000  0.43200000  0.12800000  1.0 0.6303725339
K  K2  1  0.99930000  0.52550000  0.14420000  1.0 -0.1234649919
K  K3  1  0.10729000  0.65295000  0.27476000  1.0 0.1004772829
K  K4  1  0.02510000  0.63260000  0.26960000  1.0 0.3425510721
K  K5  1  0.73837000  0.59993000  0.17212000  1.0 0.9100444215
K  K6  1  0.43200000  0.12800000  0.02800000  1.0 0.6303725339
K  K7  1  0.52550000  0.14420000  0.99930000  1.0 -0.1279369397
K  K8  1  0.65295000  0.27476000  0.10729000  1.0 0.1004772829
K  K9  1  0.63260000  0.26960000  0.02510000  1.0 0.3425510721
K  K10  1  0.59993000  0.17212000  0.73837000  1.0 0.9100444215
K  K11  1  0.12800000  0.02800000  0.43200000  1.0 0.6303725339
K  K12  1  0.14420000  0.99930000  0.52550000  1.0 -0.1234649919
K  K13  1  0.27476000  0.10729000  0.65295000  1.0 0.1004772829
K  K14  1  0.26960000  0.02510000  0.63260000  1.0 0.3425510721
K  K15  1  0.17212000  0.73837000  0.59993000  1.0 0.9100444215
K  K16  1  0.97200000  0.56800000  0.87200000  1.0 0.6303725339
K  K17  1  0.00070000  0.47450000  0.85580000  1.0 -0.1279369397
K  K18  1  0.89271000  0.34705000  0.72524000  1.0 0.1004772829
K  K19  1  0.97490000  0.36740000  0.73040000  1.0 0.3425510721
K  K20  1  0.26163000  0.40007000  0.82788000  1.0 0.9100444215
K  K21  1  0.56800000  0.87200000  0.97200000  1.0 0.6303725339
K  K22  1  0.47450000  0.85580000  0.00070000  1.0 -0.1234649919
K  K23  1  0.34705000  0.72524000  0.89271000  1.0 0.1004772829
K  K24  1  0.36740000  0.73040000  0.97490000  1.0 0.3425510721
K  K25  1  0.40007000  0.82788000  0.26163000  1.0 0.9100444215
K  K26  1  0.87200000  0.97200000  0.56800000  1.0 0.6303725339
K  K27  1  0.85580000  0.00070000  0.47450000  1.0 -0.1279369397
K  K28  1  0.72524000  0.89271000  0.34705000  1.0 0.1004772829
K  K29  1  0.73040000  0.97490000  0.36740000  1.0 0.3425510721
K  K30  1  0.82788000  0.26163000  0.40007000  1.0 0.9100444215
Zr  Zr1  1  0.91060000  0.71849000  0.08833000  1.0 2.0935765403
Zr  Zr2  1  0.17773000  0.87102000  0.21176000  1.0 2.1251312392
Zr  Zr3  1  0.71849000  0.08833000  0.91060000  1.0 2.0935765403
Zr  Zr4  1  0.87102000  0.21176000  0.17773000  1.0 2.1251312392
Zr  Zr5  1  0.08833000  0.91060000  0.71849000  1.0 2.0935765403
Zr  Zr6  1  0.21176000  0.17773000  0.87102000  1.0 2.1251312392
Zr  Zr7  1  0.08940000  0.28151000  0.91167000  1.0 2.0935765403
Zr  Zr8  1  0.82227000  0.12898000  0.78824000  1.0 2.1251312392
Zr  Zr9  1  0.28151000  0.91167000  0.08940000  1.0 2.0935765403
Zr  Zr10  1  0.12898000  0.78824000  0.82227000  1.0 2.1251312392
Zr  Zr11  1  0.91167000  0.08940000  0.28151000  1.0 2.0951393741
Zr  Zr12  1  0.78824000  0.82227000  0.12898000  1.0 2.1198376315
C  C1  1  0.75660000  0.46350000  0.96920000  1.0 0.5003804438
C  C2  1  0.75110000  0.46250000  0.87520000  1.0 0.5178521819
C  C3  1  0.35310000  0.94290000  0.43980000  1.0 0.5003804438
C  C4  1  0.34490000  0.03670000  0.47720000  1.0 0.5178521819
C  C5  1  0.46350000  0.96920000  0.75660000  1.0 0.5003804438
C  C6  1  0.46250000  0.87520000  0.75110000  1.0 0.5178521819
C  C7  1  0.94290000  0.43980000  0.35310000  1.0 0.5003804438
C  C8  1  0.03670000  0.47720000  0.34490000  1.0 0.5178521819
C  C9  1  0.96920000  0.75660000  0.46350000  1.0 0.5003804438
C  C10  1  0.87520000  0.75110000  0.46250000  1.0 0.5178521819
C  C11  1  0.43980000  0.35310000  0.94290000  1.0 0.5003804438
C  C12  1  0.47720000  0.34490000  0.03670000  1.0 0.5178521819
C  C13  1  0.24340000  0.53650000  0.03080000  1.0 0.5003804438
C  C14  1  0.24890000  0.53750000  0.12480000  1.0 0.5178521819
C  C15  1  0.64690000  0.05710000  0.56020000  1.0 0.5003804438
C  C16  1  0.65510000  0.96330000  0.52280000  1.0 0.5178521819
C  C17  1  0.53650000  0.03080000  0.24340000  1.0 0.5003804438
C  C18  1  0.53750000  0.12480000  0.24890000  1.0 0.5178521819
C  C19  1  0.05710000  0.56020000  0.64690000  1.0 0.5003804438
C  C20  1  0.96330000  0.52280000  0.65510000  1.0 0.5178521819
C  C21  1  0.03080000  0.24340000  0.53650000  1.0 0.5003804438
C  C22  1  0.12480000  0.24890000  0.53750000  1.0 0.5178521819
C  C23  1  0.56020000  0.64690000  0.05710000  1.0 0.5003804438
C  C24  1  0.52280000  0.65510000  0.96330000  1.0 0.5178521819
O  O1  1  0.06530000  0.77950000  0.23550000  1.0 -0.5196334226
O  O2  1  0.03800000  0.69576000  0.12874000  1.0 -0.5403477055
O  O3  1  0.05629000  0.89486000  0.17325000  1.0 -0.4884215646
O  O4  1  0.01353000  0.80190000  0.05877000  1.0 -0.4704863701
O  O5  1  0.73490000  0.65690000  0.00000000  1.0 -0.4884215646
O  O6  1  0.81063000  0.75344000  0.01043000  1.0 -0.4634282154
O  O7  1  0.90704000  0.80815000  0.21781000  1.0 -0.9563671453
O  O8  1  0.82025000  0.56424000  0.06641000  1.0 -0.5895136697
O  O9  1  0.81366000  0.56360000  0.90954000  1.0 -0.5839109721
O  O10  1  0.68910000  0.36910000  0.77710000  1.0 -0.4425867501
O  O11  1  0.70200000  0.37150000  0.94570000  1.0 -0.3999711675
O  O12  1  0.29040000  0.86590000  0.32990000  1.0 -0.598485336
O  O13  1  0.41470000  0.94740000  0.51350000  1.0 -0.3880541129
O  O14  1  0.27300000  0.02080000  0.39130000  1.0 -0.598485336
O  O15  1  0.40340000  0.11690000  0.58030000  1.0 -0.4884215646
O  O16  1  0.85120000  0.47240000  0.18880000  1.0 -0.1009740012
O  O17  1  0.77950000  0.23550000  0.06530000  1.0 -0.5196334226
O  O18  1  0.69576000  0.12874000  0.03800000  1.0 -0.5403477055
O  O19  1  0.89486000  0.17325000  0.05629000  1.0 -0.4884215646
O  O20  1  0.80190000  0.05877000  0.01353000  1.0 -0.4704863701
O  O21  1  0.65690000  0.00000000  0.73490000  1.0 -0.4884215646
O  O22  1  0.75344000  0.01043000  0.81063000  1.0 -0.4634282154
O  O23  1  0.80815000  0.21781000  0.90704000  1.0 -0.9486995322
O  O24  1  0.56424000  0.06641000  0.82025000  1.0 -0.5895136697
O  O25  1  0.56360000  0.90954000  0.81366000  1.0 -0.5839109721
O  O26  1  0.36910000  0.77710000  0.68910000  1.0 -0.4425867501
O  O27  1  0.37150000  0.94570000  0.70200000  1.0 -0.3999711675
O  O28  1  0.86590000  0.32990000  0.29040000  1.0 -0.598485336
O  O29  1  0.94740000  0.51350000  0.41470000  1.0 -0.3880541129
O  O30  1  0.02080000  0.39130000  0.27300000  1.0 -0.598485336
O  O31  1  0.11690000  0.58030000  0.40340000  1.0 -0.4884215646
O  O32  1  0.47240000  0.18880000  0.85120000  1.0 -0.1009740012
O  O33  1  0.23550000  0.06530000  0.77950000  1.0 -0.5196334226
O  O34  1  0.12874000  0.03800000  0.69576000  1.0 -0.5403477055
O  O35  1  0.17325000  0.05629000  0.89486000  1.0 -0.4884215646
O  O36  1  0.05877000  0.01353000  0.80190000  1.0 -0.4704863701
O  O37  1  0.00000000  0.73490000  0.65690000  1.0 -0.4884215646
O  O38  1  0.01043000  0.81063000  0.75344000  1.0 -0.4634282154
O  O39  1  0.21781000  0.90704000  0.80815000  1.0 -0.9486995322
O  O40  1  0.06641000  0.82025000  0.56424000  1.0 -0.5895136697
O  O41  1  0.90954000  0.81366000  0.56360000  1.0 -0.5839109721
O  O42  1  0.77710000  0.68910000  0.36910000  1.0 -0.4425867501
O  O43  1  0.94570000  0.70200000  0.37150000  1.0 -0.3999711675
O  O44  1  0.32990000  0.29040000  0.86590000  1.0 -0.598485336
O  O45  1  0.51350000  0.41470000  0.94740000  1.0 -0.3880541129
O  O46  1  0.39130000  0.27300000  0.02080000  1.0 -0.598485336
O  O47  1  0.58030000  0.40340000  0.11690000  1.0 -0.4884215646
O  O48  1  0.18880000  0.85120000  0.47240000  1.0 -0.1009740012
O  O49  1  0.93470000  0.22050000  0.76450000  1.0 -0.5196334226
O  O50  1  0.96200000  0.30424000  0.87126000  1.0 -0.5403477055
O  O51  1  0.94371000  0.10514000  0.82675000  1.0 -0.4884215646
O  O52  1  0.98647000  0.19810000  0.94123000  1.0 -0.4704863701
O  O53  1  0.26510000  0.34310000  0.00000000  1.0 -0.4884215646
O  O54  1  0.18937000  0.24656000  0.98957000  1.0 -0.4634282154
O  O55  1  0.09296000  0.19185000  0.78219000  1.0 -0.9486995322
O  O56  1  0.17975000  0.43576000  0.93359000  1.0 -0.5895136697
O  O57  1  0.18634000  0.43640000  0.09046000  1.0 -0.5839109721
O  O58  1  0.31090000  0.63090000  0.22290000  1.0 -0.4425867501
O  O59  1  0.29800000  0.62850000  0.05430000  1.0 -0.3999711675
O  O60  1  0.70960000  0.13410000  0.67010000  1.0 -0.598485336
O  O61  1  0.58530000  0.05260000  0.48650000  1.0 -0.3880541129
O  O62  1  0.72700000  0.97920000  0.60870000  1.0 -0.598485336
O  O63  1  0.59660000  0.88310000  0.41970000  1.0 -0.4884215646
O  O64  1  0.14880000  0.52760000  0.81120000  1.0 -0.1009740012
O  O65  1  0.22050000  0.76450000  0.93470000  1.0 -0.5196334226
O  O66  1  0.30424000  0.87126000  0.96200000  1.0 -0.5403477055
O  O67  1  0.10514000  0.82675000  0.94371000  1.0 -0.4884215646
O  O68  1  0.19810000  0.94123000  0.98647000  1.0 -0.4704863701
O  O69  1  0.34310000  0.00000000  0.26510000  1.0 -0.4884215646
O  O70  1  0.24656000  0.98957000  0.18937000  1.0 -0.4704863701
O  O71  1  0.19185000  0.78219000  0.09296000  1.0 -0.9486995322
O  O72  1  0.43576000  0.93359000  0.17975000  1.0 -0.5895136697
O  O73  1  0.43640000  0.09046000  0.18634000  1.0 -0.5839109721
O  O74  1  0.63090000  0.22290000  0.31090000  1.0 -0.4425867501
O  O75  1  0.62850000  0.05430000  0.29800000  1.0 -0.3999711675
O  O76  1  0.13410000  0.67010000  0.70960000  1.0 -0.598485336
O  O77  1  0.05260000  0.48650000  0.58530000  1.0 -0.3880541129
O  O78  1  0.97920000  0.60870000  0.72700000  1.0 -0.598485336
O  O79  1  0.88310000  0.41970000  0.59660000  1.0 -0.4884215646
O  O80  1  0.52760000  0.81120000  0.14880000  1.0 -0.1009740012
O  O81  1  0.76450000  0.93470000  0.22050000  1.0 -0.5196334226
O  O82  1  0.87126000  0.96200000  0.30424000  1.0 -0.5403477055
O  O83  1  0.82675000  0.94371000  0.10514000  1.0 -0.4884215646
O  O84  1  0.94123000  0.98647000  0.19810000  1.0 -0.4704863701
O  O85  1  0.00000000  0.26510000  0.34310000  1.0 -0.4884215646
O  O86  1  0.98957000  0.18937000  0.24656000  1.0 -0.4634282154
O  O87  1  0.78219000  0.09296000  0.19185000  1.0 -0.9486995322
O  O88  1  0.93359000  0.17975000  0.43576000  1.0 -0.5895136697
O  O89  1  0.09046000  0.18634000  0.43640000  1.0 -0.5839109721
O  O90  1  0.22290000  0.31090000  0.63090000  1.0 -0.4425867501
O  O91  1  0.05430000  0.29800000  0.62850000  1.0 -0.3999711675
O  O92  1  0.67010000  0.70960000  0.13410000  1.0 -0.598485336
O  O93  1  0.48650000  0.58530000  0.05260000  1.0 -0.3880541129
O  O94  1  0.60870000  0.72700000  0.97920000  1.0 -0.598485336
O  O95  1  0.41970000  0.59660000  0.88310000  1.0 -0.4884215646
O  O96  1  0.81120000  0.14880000  0.52760000  1.0 -0.1009740012
