# DDEC6 charges by PACMAN v1.1 (https://github.com/mtap-research/PACMAN-charge/)
data_ZADQUT_ASR_pacman
_symmetry_space_group_name_H-M   'P 1'
_cell_length_a   14.08250000
_cell_length_b   14.08250000
_cell_length_c   14.08250000
_cell_angle_alpha   119.80600000
_cell_angle_beta   119.80600000
_cell_angle_gamma   90.33580000
_symmetry_Int_Tables_number   1
_chemical_formula_structural   Cu4H40C56N24ClO16
_chemical_formula_sum   'Cu4 H40 C56 N24 Cl1 O16'
_cell_volume   1980.56858931
_cell_formula_units_Z   1
loop_
 _symmetry_equiv_pos_site_id
 _symmetry_equiv_pos_as_xyz
  1  'x, y, z'
loop_
 _atom_site_type_symbol
 _atom_site_label
 _atom_site_symmetry_multiplicity
 _atom_site_fract_x
 _atom_site_fract_y
 _atom_site_fract_z
 _atom_site_occupancy
 _atom_site_charge
Cu  Cu1  1  0.17915000  0.00000000  0.17915000  1.0 0.197124285
Cu  Cu2  1  0.00000000  0.82085000  0.82085000  1.0 0.1917792236
Cu  Cu3  1  0.82085000  0.00000000  0.82085000  1.0 0.1917792236
Cu  Cu4  1  0.00000000  0.17915000  0.17915000  1.0 0.197124285
H  H1  1  0.41220000  0.05500000  0.19960000  1.0 0.0595365105
H  H2  1  0.05500000  0.85540000  0.64280000  1.0 0.0595365105
H  H3  1  0.58780000  0.78740000  0.64280000  1.0 0.0595365105
H  H4  1  0.85540000  0.21260000  0.80040000  1.0 0.0595365105
H  H5  1  0.94500000  0.58780000  0.80040000  1.0 0.0595365105
H  H6  1  0.78740000  0.14460000  0.19960000  1.0 0.0595365105
H  H7  1  0.21260000  0.41220000  0.35720000  1.0 0.0595365105
H  H8  1  0.14460000  0.94500000  0.35720000  1.0 0.0595365105
H  H9  1  0.58780000  0.94500000  0.80040000  1.0 0.0595365105
H  H10  1  0.94500000  0.14460000  0.35720000  1.0 0.0595365105
H  H11  1  0.41220000  0.21260000  0.35720000  1.0 0.0595365105
H  H12  1  0.14460000  0.78740000  0.19960000  1.0 0.0595365105
H  H13  1  0.05500000  0.41220000  0.19960000  1.0 0.0595365105
H  H14  1  0.21260000  0.85540000  0.80040000  1.0 0.0595365105
H  H15  1  0.78740000  0.58780000  0.64280000  1.0 0.0595365105
H  H16  1  0.85540000  0.05500000  0.64280000  1.0 0.0595365105
H  H17  1  0.60450000  0.10450000  0.20900000  1.0 0.1060519789
H  H18  1  0.10450000  0.89550000  0.50000000  1.0 0.1060519789
H  H19  1  0.39550000  0.60450000  0.50000000  1.0 0.1060519789
H  H20  1  0.89550000  0.39550000  0.79100000  1.0 0.1060519789
H  H21  1  0.39550000  0.89550000  0.79100000  1.0 0.1060519789
H  H22  1  0.89550000  0.10450000  0.50000000  1.0 0.1060519789
H  H23  1  0.60450000  0.39550000  0.50000000  1.0 0.1060519789
H  H24  1  0.10450000  0.60450000  0.20900000  1.0 0.1060519789
H  H25  1  0.47880000  0.06090000  0.20030000  1.0 0.0494075132
H  H26  1  0.06090000  0.86060000  0.58210000  1.0 0.0494075132
H  H27  1  0.52120000  0.72150000  0.58210000  1.0 0.0494075132
H  H28  1  0.86060000  0.27850000  0.79970000  1.0 0.0494075132
H  H29  1  0.93910000  0.52120000  0.79970000  1.0 0.0494075132
H  H30  1  0.72150000  0.13940000  0.20030000  1.0 0.0494075132
H  H31  1  0.27850000  0.47880000  0.41790000  1.0 0.0494075132
H  H32  1  0.13940000  0.93910000  0.41790000  1.0 0.0494075132
H  H33  1  0.52120000  0.93910000  0.79970000  1.0 0.0494075132
H  H34  1  0.93910000  0.13940000  0.41790000  1.0 0.0494075132
H  H35  1  0.47880000  0.27850000  0.41790000  1.0 0.0494075132
H  H36  1  0.13940000  0.72150000  0.20030000  1.0 0.0494075132
H  H37  1  0.06090000  0.47880000  0.20030000  1.0 0.0494075132
H  H38  1  0.27850000  0.86060000  0.79970000  1.0 0.0494075132
H  H39  1  0.72150000  0.52120000  0.58210000  1.0 0.0494075132
H  H40  1  0.86060000  0.06090000  0.58210000  1.0 0.0494075132
C  C1  1  0.34960000  0.00540000  0.11020000  1.0 0.0494075132
C  C2  1  0.00540000  0.89520000  0.65580000  1.0 0.0494075132
C  C3  1  0.65040000  0.76060000  0.65580000  1.0 0.0494075132
C  C4  1  0.89520000  0.23940000  0.88980000  1.0 0.0494075132
C  C5  1  0.99460000  0.65040000  0.88980000  1.0 0.0494075132
C  C6  1  0.76060000  0.10480000  0.11020000  1.0 0.0494075132
C  C7  1  0.23940000  0.34960000  0.34420000  1.0 0.0494075132
C  C8  1  0.10480000  0.99460000  0.34420000  1.0 0.0494075132
C  C9  1  0.65040000  0.99460000  0.88980000  1.0 0.0494075132
C  C10  1  0.99460000  0.10480000  0.34420000  1.0 0.0494075132
C  C11  1  0.34960000  0.23940000  0.34420000  1.0 0.0494075132
C  C12  1  0.10480000  0.76060000  0.11020000  1.0 0.0494075132
C  C13  1  0.00540000  0.34960000  0.11020000  1.0 0.0494075132
C  C14  1  0.23940000  0.89520000  0.88980000  1.0 0.0494075132
C  C15  1  0.76060000  0.65040000  0.65580000  1.0 0.0494075132
C  C16  1  0.89520000  0.00540000  0.65580000  1.0 0.0494075132
C  C17  1  0.45230000  0.98630000  0.00000000  1.0 0.0494075132
C  C18  1  0.98630000  0.98630000  0.53400000  1.0 0.0494075132
C  C19  1  0.54770000  0.54770000  0.53400000  1.0 0.0494075132
C  C20  1  0.98630000  0.45230000  0.00000000  1.0 0.0494075132
C  C21  1  0.01370000  0.54770000  0.00000000  1.0 0.0494075132
C  C22  1  0.54770000  0.01370000  0.00000000  1.0 0.0494075132
C  C23  1  0.45230000  0.45230000  0.46600000  1.0 0.0494075132
C  C24  1  0.01370000  0.01370000  0.46600000  1.0 0.0494075132
C  C25  1  0.55800000  0.05800000  0.11600000  1.0 -0.1379576406
C  C26  1  0.05800000  0.94200000  0.50000000  1.0 -0.1379576406
C  C27  1  0.44200000  0.55800000  0.50000000  1.0 -0.1379576406
C  C28  1  0.94200000  0.44200000  0.88400000  1.0 -0.1379576406
C  C29  1  0.44200000  0.94200000  0.88400000  1.0 -0.1379576406
C  C30  1  0.94200000  0.05800000  0.50000000  1.0 -0.1379576406
C  C31  1  0.55800000  0.44200000  0.50000000  1.0 -0.1379576406
C  C32  1  0.05800000  0.55800000  0.11600000  1.0 -0.1379576406
C  C33  1  0.46720000  0.03190000  0.11850000  1.0 -0.0723563413
C  C34  1  0.03190000  0.91340000  0.56470000  1.0 -0.0723563413
C  C35  1  0.53280000  0.65130000  0.56470000  1.0 -0.0723563413
C  C36  1  0.91340000  0.34870000  0.88150000  1.0 -0.0723563413
C  C37  1  0.96810000  0.53280000  0.88150000  1.0 -0.0723563413
C  C38  1  0.65130000  0.08660000  0.11850000  1.0 -0.0723563413
C  C39  1  0.34870000  0.46720000  0.43530000  1.0 -0.0723563413
C  C40  1  0.08660000  0.96810000  0.43530000  1.0 -0.0723563413
C  C41  1  0.53280000  0.96810000  0.88150000  1.0 -0.0723563413
C  C42  1  0.96810000  0.08660000  0.43530000  1.0 -0.0723563413
C  C43  1  0.46720000  0.34870000  0.43530000  1.0 -0.0723563413
C  C44  1  0.08660000  0.65130000  0.11850000  1.0 -0.0723563413
C  C45  1  0.03190000  0.46720000  0.11850000  1.0 -0.0723563413
C  C46  1  0.34870000  0.91340000  0.88150000  1.0 -0.0723563413
C  C47  1  0.65130000  0.53280000  0.56470000  1.0 -0.0723563413
C  C48  1  0.91340000  0.03190000  0.56470000  1.0 -0.0723563413
C  C49  1  0.25540000  0.93580000  0.00000000  1.0 0.2215174672
C  C50  1  0.93580000  0.93580000  0.68040000  1.0 0.2215174672
C  C51  1  0.74460000  0.74460000  0.68040000  1.0 0.2215174672
C  C52  1  0.93580000  0.25540000  0.00000000  1.0 0.2215174672
C  C53  1  0.06420000  0.74460000  0.00000000  1.0 0.2215174672
C  C54  1  0.74460000  0.06420000  0.00000000  1.0 0.2215174672
C  C55  1  0.25540000  0.25540000  0.31960000  1.0 0.2215174672
C  C56  1  0.06420000  0.06420000  0.31960000  1.0 0.2215174672
N  N1  1  0.23820000  0.96390000  0.06590000  1.0 -0.0987087919
N  N2  1  0.96390000  0.89800000  0.72570000  1.0 -0.0987087919
N  N3  1  0.76180000  0.82770000  0.72570000  1.0 -0.0987087919
N  N4  1  0.89800000  0.17230000  0.93410000  1.0 -0.0987087919
N  N5  1  0.03610000  0.76180000  0.93410000  1.0 -0.0987087919
N  N6  1  0.82770000  0.10200000  0.06590000  1.0 -0.0987087919
N  N7  1  0.17230000  0.23820000  0.27430000  1.0 -0.0987087919
N  N8  1  0.10200000  0.03610000  0.27430000  1.0 -0.0987087919
N  N9  1  0.76180000  0.03610000  0.93410000  1.0 -0.0987087919
N  N10  1  0.03610000  0.10200000  0.27430000  1.0 -0.0987087919
N  N11  1  0.23820000  0.17230000  0.27430000  1.0 -0.0987087919
N  N12  1  0.10200000  0.82770000  0.06590000  1.0 -0.0987087919
N  N13  1  0.96390000  0.23820000  0.06590000  1.0 -0.0987087919
N  N14  1  0.17230000  0.89800000  0.93410000  1.0 -0.0987087919
N  N15  1  0.82770000  0.76180000  0.72570000  1.0 -0.0987087919
N  N16  1  0.89800000  0.96390000  0.72570000  1.0 -0.0987087919
N  N17  1  0.35580000  0.96180000  0.00000000  1.0 -0.0723563413
N  N18  1  0.96180000  0.96180000  0.60600000  1.0 -0.0723563413
N  N19  1  0.64420000  0.64420000  0.60600000  1.0 -0.0723563413
N  N20  1  0.96180000  0.35580000  0.00000000  1.0 -0.0643377528
N  N21  1  0.03820000  0.64420000  0.00000000  1.0 -0.0643377528
N  N22  1  0.64420000  0.03820000  0.00000000  1.0 -0.0643377528
N  N23  1  0.35580000  0.35580000  0.39400000  1.0 -0.0723563413
N  N24  1  0.03820000  0.03820000  0.39400000  1.0 -0.0723563413
Cl  Cl1  1  0.00000000  0.00000000  0.00000000  1.0 -0.4424876894
O  O1  1  0.27290000  0.98190000  0.10920000  1.0 -0.0930788356
O  O2  1  0.98190000  0.87270000  0.70900000  1.0 -0.0930788356
O  O3  1  0.72710000  0.83630000  0.70900000  1.0 -0.0930788356
O  O4  1  0.87270000  0.16370000  0.89080000  1.0 -0.0930788356
O  O5  1  0.01810000  0.72710000  0.89080000  1.0 -0.0930788356
O  O6  1  0.83630000  0.12730000  0.10920000  1.0 -0.0930788356
O  O7  1  0.16370000  0.27290000  0.29100000  1.0 -0.0930788356
O  O8  1  0.12730000  0.01810000  0.29100000  1.0 -0.0930788356
O  O9  1  0.72710000  0.01810000  0.89080000  1.0 -0.0930788356
O  O10  1  0.01810000  0.12730000  0.29100000  1.0 -0.0930788356
O  O11  1  0.27290000  0.16370000  0.29100000  1.0 -0.0930788356
O  O12  1  0.12730000  0.83630000  0.10920000  1.0 -0.0930788356
O  O13  1  0.98190000  0.27290000  0.10920000  1.0 -0.0930788356
O  O14  1  0.16370000  0.87270000  0.89080000  1.0 -0.0930788356
O  O15  1  0.83630000  0.72710000  0.70900000  1.0 -0.0930788356
O  O16  1  0.87270000  0.98190000  0.70900000  1.0 -0.0930788356
