# DDEC6 charges by PACMAN v1.1 (https://github.com/mtap-research/PACMAN-charge/)
data_ZADRAA_FSR_pacman
_symmetry_space_group_name_H-M   'P 1'
_cell_length_a   14.06100000
_cell_length_b   14.06100000
_cell_length_c   14.06100000
_cell_angle_alpha   120.17400000
_cell_angle_beta   120.17400000
_cell_angle_gamma   89.69970000
_symmetry_Int_Tables_number   1
_chemical_formula_structural   Cu4H40C56N24ClO16
_chemical_formula_sum   'Cu4 H40 C56 N24 Cl1 O16'
_cell_volume   1960.56099188
_cell_formula_units_Z   1
loop_
 _symmetry_equiv_pos_site_id
 _symmetry_equiv_pos_as_xyz
  1  'x, y, z'
loop_
 _atom_site_type_symbol
 _atom_site_label
 _atom_site_symmetry_multiplicity
 _atom_site_fract_x
 _atom_site_fract_y
 _atom_site_fract_z
 _atom_site_occupancy
 _atom_site_charge
Cu  Cu1  1  0.00000000  0.18067000  0.18067000  1.0 0.2366217934
Cu  Cu2  1  0.18067000  0.00000000  0.18067000  1.0 0.2366217934
Cu  Cu3  1  0.00000000  0.81933000  0.81933000  1.0 0.233057376
Cu  Cu4  1  0.81933000  0.00000000  0.81933000  1.0 0.2366217934
H  H1  1  0.79160000  0.13040000  0.19880000  1.0 0.0504876683
H  H2  1  0.13040000  0.93160000  0.33880000  1.0 0.0504876683
H  H3  1  0.20840000  0.40720000  0.33880000  1.0 0.0504876683
H  H4  1  0.93160000  0.59280000  0.80120000  1.0 0.0504876683
H  H5  1  0.86960000  0.20840000  0.80120000  1.0 0.0504876683
H  H6  1  0.40720000  0.06840000  0.19880000  1.0 0.0504876683
H  H7  1  0.59280000  0.79160000  0.66120000  1.0 0.0504876683
H  H8  1  0.06840000  0.86960000  0.66120000  1.0 0.0504876683
H  H9  1  0.20840000  0.86960000  0.80120000  1.0 0.0504876683
H  H10  1  0.86960000  0.06840000  0.66120000  1.0 0.0504876683
H  H11  1  0.79160000  0.59280000  0.66120000  1.0 0.0504876683
H  H12  1  0.06840000  0.40720000  0.19880000  1.0 0.0504876683
H  H13  1  0.13040000  0.79160000  0.19880000  1.0 0.0504876683
H  H14  1  0.59280000  0.93160000  0.80120000  1.0 0.0504876683
H  H15  1  0.40720000  0.20840000  0.33880000  1.0 0.0504876683
H  H16  1  0.93160000  0.13040000  0.33880000  1.0 0.0504876683
H  H17  1  0.60640000  0.10640000  0.21280000  1.0 0.1101850793
H  H18  1  0.10640000  0.89360000  0.50000000  1.0 0.1101850793
H  H19  1  0.39360000  0.60640000  0.50000000  1.0 0.1101850793
H  H20  1  0.89360000  0.39360000  0.78720000  1.0 0.1101850793
H  H21  1  0.39360000  0.89360000  0.78720000  1.0 0.1101850793
H  H22  1  0.89360000  0.10640000  0.50000000  1.0 0.1101850793
H  H23  1  0.60640000  0.39360000  0.50000000  1.0 0.1101850793
H  H24  1  0.10640000  0.60640000  0.21280000  1.0 0.1101850793
H  H25  1  0.71150000  0.16060000  0.19730000  1.0 0.0504876683
H  H26  1  0.16060000  0.96330000  0.44910000  1.0 0.0504876683
H  H27  1  0.28850000  0.48580000  0.44910000  1.0 0.0504876683
H  H28  1  0.96330000  0.51420000  0.80270000  1.0 0.0504876683
H  H29  1  0.83940000  0.28850000  0.80270000  1.0 0.0504876683
H  H30  1  0.48580000  0.03670000  0.19730000  1.0 0.0504876683
H  H31  1  0.51420000  0.71150000  0.55090000  1.0 0.0504876683
H  H32  1  0.03670000  0.83940000  0.55090000  1.0 0.0504876683
H  H33  1  0.28850000  0.83940000  0.80270000  1.0 0.0504876683
H  H34  1  0.83940000  0.03670000  0.55090000  1.0 0.0504876683
H  H35  1  0.71150000  0.51420000  0.55090000  1.0 0.0504876683
H  H36  1  0.03670000  0.48580000  0.19730000  1.0 0.0504876683
H  H37  1  0.16060000  0.71150000  0.19730000  1.0 0.0504876683
H  H38  1  0.51420000  0.96330000  0.80270000  1.0 0.0504876683
H  H39  1  0.48580000  0.28850000  0.44910000  1.0 0.0504876683
H  H40  1  0.96330000  0.16060000  0.44910000  1.0 0.0504876683
C  C1  1  0.76180000  0.09830000  0.10770000  1.0 0.0615220905
C  C2  1  0.09830000  0.99060000  0.33650000  1.0 0.0615220905
C  C3  1  0.23820000  0.34590000  0.33650000  1.0 0.0615220905
C  C4  1  0.99060000  0.65410000  0.89230000  1.0 0.0615220905
C  C5  1  0.90170000  0.23820000  0.89230000  1.0 0.0615220905
C  C6  1  0.34590000  0.00940000  0.10770000  1.0 0.0615220905
C  C7  1  0.65410000  0.76180000  0.66350000  1.0 0.0615220905
C  C8  1  0.00940000  0.90170000  0.66350000  1.0 0.0615220905
C  C9  1  0.23820000  0.90170000  0.89230000  1.0 0.0615220905
C  C10  1  0.90170000  0.00940000  0.66350000  1.0 0.0615220905
C  C11  1  0.76180000  0.65410000  0.66350000  1.0 0.0615220905
C  C12  1  0.00940000  0.34590000  0.10770000  1.0 0.0615220905
C  C13  1  0.09830000  0.76180000  0.10770000  1.0 0.0615220905
C  C14  1  0.65410000  0.99060000  0.89230000  1.0 0.0615220905
C  C15  1  0.34590000  0.23820000  0.33650000  1.0 0.0615220905
C  C16  1  0.99060000  0.09830000  0.33650000  1.0 0.0615220905
C  C17  1  0.55410000  0.00230000  0.00000000  1.0 0.0615220905
C  C18  1  0.00230000  0.00230000  0.44820000  1.0 0.0615220905
C  C19  1  0.44590000  0.44590000  0.44820000  1.0 0.0615220905
C  C20  1  0.00230000  0.55410000  0.00000000  1.0 0.0615220905
C  C21  1  0.99770000  0.44590000  0.00000000  1.0 0.0615220905
C  C22  1  0.44590000  0.99770000  0.00000000  1.0 0.0615220905
C  C23  1  0.55410000  0.55410000  0.55180000  1.0 0.0615220905
C  C24  1  0.99770000  0.99770000  0.55180000  1.0 0.0615220905
C  C25  1  0.55850000  0.05850000  0.11700000  1.0 -0.1486635282
C  C26  1  0.05850000  0.94150000  0.50000000  1.0 -0.1486635282
C  C27  1  0.44150000  0.55850000  0.50000000  1.0 -0.1486635282
C  C28  1  0.94150000  0.44150000  0.88300000  1.0 -0.1486635282
C  C29  1  0.44150000  0.94150000  0.88300000  1.0 -0.1486635282
C  C30  1  0.94150000  0.05850000  0.50000000  1.0 -0.1486635282
C  C31  1  0.55850000  0.44150000  0.50000000  1.0 -0.1486635282
C  C32  1  0.05850000  0.55850000  0.11700000  1.0 -0.1486635282
C  C33  1  0.73950000  0.06690000  0.00000000  1.0 0.2009825241
C  C34  1  0.06690000  0.06690000  0.32740000  1.0 0.2009825241
C  C35  1  0.26050000  0.26050000  0.32740000  1.0 0.2009825241
C  C36  1  0.06690000  0.73950000  0.00000000  1.0 0.2009825241
C  C37  1  0.93310000  0.26050000  0.00000000  1.0 0.2009825241
C  C38  1  0.26050000  0.93310000  0.00000000  1.0 0.2009825241
C  C39  1  0.73950000  0.73950000  0.67260000  1.0 0.2009825241
C  C40  1  0.93310000  0.93310000  0.67260000  1.0 0.2009825241
C  C41  1  0.64580000  0.09440000  0.11620000  1.0 -0.0801245556
C  C42  1  0.09440000  0.97820000  0.44860000  1.0 -0.0801245556
C  C43  1  0.35420000  0.47040000  0.44860000  1.0 -0.0801245556
C  C44  1  0.97820000  0.52960000  0.88380000  1.0 -0.0801245556
C  C45  1  0.90560000  0.35420000  0.88380000  1.0 -0.0801245556
C  C46  1  0.47040000  0.02180000  0.11620000  1.0 -0.0801245556
C  C47  1  0.52960000  0.64580000  0.55140000  1.0 -0.0801245556
C  C48  1  0.02180000  0.90560000  0.55140000  1.0 -0.0801245556
C  C49  1  0.35420000  0.90560000  0.88380000  1.0 -0.0801245556
C  C50  1  0.90560000  0.02180000  0.55140000  1.0 -0.0801245556
C  C51  1  0.64580000  0.52960000  0.55140000  1.0 -0.0801245556
C  C52  1  0.02180000  0.47040000  0.11620000  1.0 -0.0801245556
C  C53  1  0.09440000  0.64580000  0.11620000  1.0 -0.0801245556
C  C54  1  0.52960000  0.97820000  0.88380000  1.0 -0.0801245556
C  C55  1  0.47040000  0.35420000  0.44860000  1.0 -0.0801245556
C  C56  1  0.97820000  0.09440000  0.44860000  1.0 -0.0801245556
N  N1  1  0.82600000  0.10560000  0.06780000  1.0 -0.1023564692
N  N2  1  0.10560000  0.03780000  0.27960000  1.0 -0.1023564692
N  N3  1  0.17400000  0.24180000  0.27960000  1.0 -0.1023564692
N  N4  1  0.03780000  0.75820000  0.93220000  1.0 -0.1023564692
N  N5  1  0.89440000  0.17400000  0.93220000  1.0 -0.1023564692
N  N6  1  0.24180000  0.96220000  0.06780000  1.0 -0.1023564692
N  N7  1  0.75820000  0.82600000  0.72040000  1.0 -0.1023564692
N  N8  1  0.96220000  0.89440000  0.72040000  1.0 -0.1023564692
N  N9  1  0.17400000  0.89440000  0.93220000  1.0 -0.1023564692
N  N10  1  0.89440000  0.96220000  0.72040000  1.0 -0.1023564692
N  N11  1  0.82600000  0.75820000  0.72040000  1.0 -0.1023564692
N  N12  1  0.96220000  0.24180000  0.06780000  1.0 -0.1023564692
N  N13  1  0.10560000  0.82600000  0.06780000  1.0 -0.1023564692
N  N14  1  0.75820000  0.03780000  0.93220000  1.0 -0.1023564692
N  N15  1  0.24180000  0.17400000  0.27960000  1.0 -0.1023564692
N  N16  1  0.03780000  0.10560000  0.27960000  1.0 -0.1023564692
N  N17  1  0.64360000  0.03760000  0.00000000  1.0 -0.0455145349
N  N18  1  0.03760000  0.03760000  0.39400000  1.0 -0.0455145349
N  N19  1  0.35640000  0.35640000  0.39400000  1.0 -0.0455145349
N  N20  1  0.03760000  0.64360000  0.00000000  1.0 -0.0442488938
N  N21  1  0.96240000  0.35640000  0.00000000  1.0 -0.0455145349
N  N22  1  0.35640000  0.96240000  0.00000000  1.0 -0.0455145349
N  N23  1  0.64360000  0.64360000  0.60600000  1.0 -0.0455145349
N  N24  1  0.96240000  0.96240000  0.60600000  1.0 -0.0455145349
Cl  Cl1  1  0.00000000  0.00000000  0.00000000  1.0 -0.4148403741
O  O1  1  0.83640000  0.12880000  0.11220000  1.0 -0.1023564692
O  O2  1  0.12880000  0.01660000  0.29240000  1.0 -0.1023564692
O  O3  1  0.16360000  0.27580000  0.29240000  1.0 -0.1023564692
O  O4  1  0.01660000  0.72420000  0.88780000  1.0 -0.1023564692
O  O5  1  0.87120000  0.16360000  0.88780000  1.0 -0.1023564692
O  O6  1  0.27580000  0.98340000  0.11220000  1.0 -0.1023564692
O  O7  1  0.72420000  0.83640000  0.70760000  1.0 -0.1023564692
O  O8  1  0.98340000  0.87120000  0.70760000  1.0 -0.1023564692
O  O9  1  0.16360000  0.87120000  0.88780000  1.0 -0.1023564692
O  O10  1  0.87120000  0.98340000  0.70760000  1.0 -0.1023564692
O  O11  1  0.83640000  0.72420000  0.70760000  1.0 -0.1023564692
O  O12  1  0.98340000  0.27580000  0.11220000  1.0 -0.1023564692
O  O13  1  0.12880000  0.83640000  0.11220000  1.0 -0.1023564692
O  O14  1  0.72420000  0.01660000  0.88780000  1.0 -0.1023564692
O  O15  1  0.27580000  0.16360000  0.29240000  1.0 -0.1023564692
O  O16  1  0.01660000  0.12880000  0.29240000  1.0 -0.1023564692
