# DDEC6 charges by PACMAN v1.1 (https://github.com/mtap-research/PACMAN-charge/)
data_ZADROO_ASR_pacman
_symmetry_space_group_name_H-M   'P 1'
_cell_length_a   14.09970000
_cell_length_b   14.09970000
_cell_length_c   14.09970000
_cell_angle_alpha   119.88400000
_cell_angle_beta   119.88400000
_cell_angle_gamma   90.20160000
_symmetry_Int_Tables_number   1
_chemical_formula_structural   Cu4H40C56N24ClO16
_chemical_formula_sum   'Cu4 H40 C56 N24 Cl1 O16'
_cell_volume   1985.50221330
_cell_formula_units_Z   1
loop_
 _symmetry_equiv_pos_site_id
 _symmetry_equiv_pos_as_xyz
  1  'x, y, z'
loop_
 _atom_site_type_symbol
 _atom_site_label
 _atom_site_symmetry_multiplicity
 _atom_site_fract_x
 _atom_site_fract_y
 _atom_site_fract_z
 _atom_site_occupancy
 _atom_site_charge
Cu  Cu1  1  0.00000000  0.17954000  0.17954000  1.0 0.1984603635
Cu  Cu2  1  0.17954000  0.00000000  0.17954000  1.0 0.1984603635
Cu  Cu3  1  0.00000000  0.82046000  0.82046000  1.0 0.1984603635
Cu  Cu4  1  0.82046000  0.00000000  0.82046000  1.0 0.1984603635
H  H1  1  0.79060000  0.13020000  0.19740000  1.0 0.0579645253
H  H2  1  0.13020000  0.93280000  0.33960000  1.0 0.0579645253
H  H3  1  0.93280000  0.59320000  0.80260000  1.0 0.0579645253
H  H4  1  0.59320000  0.79060000  0.66040000  1.0 0.0579645253
H  H5  1  0.20940000  0.40680000  0.33960000  1.0 0.0579645253
H  H6  1  0.06720000  0.86980000  0.66040000  1.0 0.0579645253
H  H7  1  0.40680000  0.06720000  0.19740000  1.0 0.0579645253
H  H8  1  0.86980000  0.20940000  0.80260000  1.0 0.0579645253
H  H9  1  0.20940000  0.86980000  0.80260000  1.0 0.0579645253
H  H10  1  0.86980000  0.06720000  0.66040000  1.0 0.0579645253
H  H11  1  0.06720000  0.40680000  0.19740000  1.0 0.0579645253
H  H12  1  0.40680000  0.20940000  0.33960000  1.0 0.0579645253
H  H13  1  0.79060000  0.59320000  0.66040000  1.0 0.0579645253
H  H14  1  0.93280000  0.13020000  0.33960000  1.0 0.0579645253
H  H15  1  0.59320000  0.93280000  0.80260000  1.0 0.0579645253
H  H16  1  0.13020000  0.79060000  0.19740000  1.0 0.0579645253
H  H17  1  0.60360000  0.10360000  0.20720000  1.0 0.1079057461
H  H18  1  0.10360000  0.89640000  0.50000000  1.0 0.1079057461
H  H19  1  0.89640000  0.39640000  0.79280000  1.0 0.1079057461
H  H20  1  0.39640000  0.60360000  0.50000000  1.0 0.1079057461
H  H21  1  0.39640000  0.89640000  0.79280000  1.0 0.1079057461
H  H22  1  0.89640000  0.10360000  0.50000000  1.0 0.1079057461
H  H23  1  0.10360000  0.60360000  0.20720000  1.0 0.1079057461
H  H24  1  0.60360000  0.39640000  0.50000000  1.0 0.1079057461
H  H25  1  0.71940000  0.14510000  0.19850000  1.0 0.0467213249
H  H26  1  0.14510000  0.94660000  0.42570000  1.0 0.0467213249
H  H27  1  0.94660000  0.52090000  0.80150000  1.0 0.0467213249
H  H28  1  0.52090000  0.71940000  0.57430000  1.0 0.0467213249
H  H29  1  0.28060000  0.47910000  0.42570000  1.0 0.0467213249
H  H30  1  0.05340000  0.85490000  0.57430000  1.0 0.0467213249
H  H31  1  0.47910000  0.05340000  0.19850000  1.0 0.0467213249
H  H32  1  0.85490000  0.28060000  0.80150000  1.0 0.0467213249
H  H33  1  0.28060000  0.85490000  0.80150000  1.0 0.0467213249
H  H34  1  0.85490000  0.05340000  0.57430000  1.0 0.0467213249
H  H35  1  0.05340000  0.47910000  0.19850000  1.0 0.0467213249
H  H36  1  0.47910000  0.28060000  0.42570000  1.0 0.0467213249
H  H37  1  0.71940000  0.52090000  0.57430000  1.0 0.0467213249
H  H38  1  0.94660000  0.14510000  0.42570000  1.0 0.0467213249
H  H39  1  0.52090000  0.94660000  0.80150000  1.0 0.0467213249
H  H40  1  0.14510000  0.71940000  0.19850000  1.0 0.0467213249
C  C1  1  0.76210000  0.09740000  0.10850000  1.0 0.0579645253
C  C2  1  0.09740000  0.98890000  0.33530000  1.0 0.0579645253
C  C3  1  0.98890000  0.65360000  0.89150000  1.0 0.0579645253
C  C4  1  0.65360000  0.76210000  0.66470000  1.0 0.0579645253
C  C5  1  0.23790000  0.34640000  0.33530000  1.0 0.0579645253
C  C6  1  0.01110000  0.90260000  0.66470000  1.0 0.0579645253
C  C7  1  0.34640000  0.01110000  0.10850000  1.0 0.0579645253
C  C8  1  0.90260000  0.23790000  0.89150000  1.0 0.0579645253
C  C9  1  0.23790000  0.90260000  0.89150000  1.0 0.0579645253
C  C10  1  0.90260000  0.01110000  0.66470000  1.0 0.0579645253
C  C11  1  0.01110000  0.34640000  0.10850000  1.0 0.0579645253
C  C12  1  0.34640000  0.23790000  0.33530000  1.0 0.0579645253
C  C13  1  0.76210000  0.65360000  0.66470000  1.0 0.0579645253
C  C14  1  0.98890000  0.09740000  0.33530000  1.0 0.0579645253
C  C15  1  0.65360000  0.98890000  0.89150000  1.0 0.0579645253
C  C16  1  0.09740000  0.76210000  0.10850000  1.0 0.0579645253
C  C17  1  0.55040000  0.00460000  0.00000000  1.0 0.0467213249
C  C18  1  0.00460000  0.00460000  0.45420000  1.0 0.0467213249
C  C19  1  0.00460000  0.55040000  0.00000000  1.0 0.0467213249
C  C20  1  0.55040000  0.55040000  0.54580000  1.0 0.0467213249
C  C21  1  0.44960000  0.44960000  0.45420000  1.0 0.0467213249
C  C22  1  0.99540000  0.99540000  0.54580000  1.0 0.0467213249
C  C23  1  0.44960000  0.99540000  0.00000000  1.0 0.0467213249
C  C24  1  0.99540000  0.44960000  0.00000000  1.0 0.0467213249
C  C25  1  0.55710000  0.05710000  0.11420000  1.0 -0.1519102132
C  C26  1  0.05710000  0.94290000  0.50000000  1.0 -0.1519102132
C  C27  1  0.94290000  0.44290000  0.88580000  1.0 -0.1519102132
C  C28  1  0.44290000  0.55710000  0.50000000  1.0 -0.1519102132
C  C29  1  0.44290000  0.94290000  0.88580000  1.0 -0.1519102132
C  C30  1  0.94290000  0.05710000  0.50000000  1.0 -0.1519102132
C  C31  1  0.05710000  0.55710000  0.11420000  1.0 -0.1519102132
C  C32  1  0.55710000  0.44290000  0.50000000  1.0 -0.1519102132
C  C33  1  0.74150000  0.06510000  0.00000000  1.0 0.2097484979
C  C34  1  0.06510000  0.06510000  0.32360000  1.0 0.2097484979
C  C35  1  0.06510000  0.74150000  0.00000000  1.0 0.2097484979
C  C36  1  0.74150000  0.74150000  0.67640000  1.0 0.2097484979
C  C37  1  0.25850000  0.25850000  0.32360000  1.0 0.2097484979
C  C38  1  0.93490000  0.93490000  0.67640000  1.0 0.2097484979
C  C39  1  0.25850000  0.93490000  0.00000000  1.0 0.2097484979
C  C40  1  0.93490000  0.25850000  0.00000000  1.0 0.2097484979
C  C41  1  0.65080000  0.08840000  0.11720000  1.0 -0.0732255372
C  C42  1  0.08840000  0.97120000  0.43760000  1.0 -0.0732255372
C  C43  1  0.97120000  0.53360000  0.88280000  1.0 -0.0732255372
C  C44  1  0.53360000  0.65080000  0.56240000  1.0 -0.0732255372
C  C45  1  0.34920000  0.46640000  0.43760000  1.0 -0.0732255372
C  C46  1  0.02880000  0.91160000  0.56240000  1.0 -0.0732255372
C  C47  1  0.46640000  0.02880000  0.11720000  1.0 -0.0732255372
C  C48  1  0.91160000  0.34920000  0.88280000  1.0 -0.0732255372
C  C49  1  0.34920000  0.91160000  0.88280000  1.0 -0.0732255372
C  C50  1  0.91160000  0.02880000  0.56240000  1.0 -0.0732255372
C  C51  1  0.02880000  0.46640000  0.11720000  1.0 -0.0732255372
C  C52  1  0.46640000  0.34920000  0.43760000  1.0 -0.0732255372
C  C53  1  0.65080000  0.53360000  0.56240000  1.0 -0.0732255372
C  C54  1  0.97120000  0.08840000  0.43760000  1.0 -0.0732255372
C  C55  1  0.53360000  0.97120000  0.88280000  1.0 -0.0732255372
C  C56  1  0.08840000  0.65080000  0.11720000  1.0 -0.0732255372
N  N1  1  0.82570000  0.10120000  0.06670000  1.0 -0.0900215202
N  N2  1  0.10120000  0.03450000  0.27550000  1.0 -0.0900215202
N  N3  1  0.03450000  0.75900000  0.93330000  1.0 -0.0900215202
N  N4  1  0.75900000  0.82570000  0.72450000  1.0 -0.0900215202
N  N5  1  0.17430000  0.24100000  0.27550000  1.0 -0.0900215202
N  N6  1  0.96550000  0.89880000  0.72450000  1.0 -0.0900215202
N  N7  1  0.24100000  0.96550000  0.06670000  1.0 -0.0900215202
N  N8  1  0.89880000  0.17430000  0.93330000  1.0 -0.0900215202
N  N9  1  0.17430000  0.89880000  0.93330000  1.0 -0.0900215202
N  N10  1  0.89880000  0.96550000  0.72450000  1.0 -0.0900215202
N  N11  1  0.96550000  0.24100000  0.06670000  1.0 -0.0900215202
N  N12  1  0.24100000  0.17430000  0.27550000  1.0 -0.0900215202
N  N13  1  0.82570000  0.75900000  0.72450000  1.0 -0.0900215202
N  N14  1  0.03450000  0.10120000  0.27550000  1.0 -0.0900215202
N  N15  1  0.75900000  0.03450000  0.93330000  1.0 -0.0900215202
N  N16  1  0.10120000  0.82570000  0.06670000  1.0 -0.0900215202
N  N17  1  0.64460000  0.03640000  0.00000000  1.0 -0.0497519822
N  N18  1  0.03640000  0.03640000  0.39180000  1.0 -0.0497519822
N  N19  1  0.03640000  0.64460000  0.00000000  1.0 -0.0497519822
N  N20  1  0.64460000  0.64460000  0.60820000  1.0 -0.0497519822
N  N21  1  0.35540000  0.35540000  0.39180000  1.0 -0.0497519822
N  N22  1  0.96360000  0.96360000  0.60820000  1.0 -0.0497519822
N  N23  1  0.35540000  0.96360000  0.00000000  1.0 -0.0497519822
N  N24  1  0.96360000  0.35540000  0.00000000  1.0 -0.0497519822
Cl  Cl1  1  0.00000000  0.00000000  0.00000000  1.0 -0.4395440811
O  O1  1  0.83720000  0.12930000  0.11190000  1.0 -0.1029035908
O  O2  1  0.12930000  0.01740000  0.29210000  1.0 -0.1029035908
O  O3  1  0.01740000  0.72530000  0.88810000  1.0 -0.1029035908
O  O4  1  0.72530000  0.83720000  0.70790000  1.0 -0.1029035908
O  O5  1  0.16280000  0.27470000  0.29210000  1.0 -0.1029035908
O  O6  1  0.98260000  0.87070000  0.70790000  1.0 -0.1029035908
O  O7  1  0.27470000  0.98260000  0.11190000  1.0 -0.1029035908
O  O8  1  0.87070000  0.16280000  0.88810000  1.0 -0.1029035908
O  O9  1  0.16280000  0.87070000  0.88810000  1.0 -0.1029035908
O  O10  1  0.87070000  0.98260000  0.70790000  1.0 -0.1029035908
O  O11  1  0.98260000  0.27470000  0.11190000  1.0 -0.1029035908
O  O12  1  0.27470000  0.16280000  0.29210000  1.0 -0.1029035908
O  O13  1  0.83720000  0.72530000  0.70790000  1.0 -0.1029035908
O  O14  1  0.01740000  0.12930000  0.29210000  1.0 -0.1029035908
O  O15  1  0.72530000  0.01740000  0.88810000  1.0 -0.1029035908
O  O16  1  0.12930000  0.83720000  0.11190000  1.0 -0.1029035908
