# DDEC6 charges by PACMAN v1.1 (https://github.com/mtap-research/PACMAN-charge/)
data_ZAHKOL_ASR_pacman
_symmetry_space_group_name_H-M   'P 1'
_cell_length_a   12.48890000
_cell_length_b   12.48890000
_cell_length_c   18.87860000
_cell_angle_alpha   89.99790000
_cell_angle_beta   90.00210000
_cell_angle_gamma   90.23290000
_symmetry_Int_Tables_number   1
_chemical_formula_structural   Cu3H44C60S4(N2O9)2
_chemical_formula_sum   'Cu6 H88 C120 S8 N8 O36'
_cell_volume   2944.52043400
_cell_formula_units_Z   2
loop_
 _symmetry_equiv_pos_site_id
 _symmetry_equiv_pos_as_xyz
  1  'x, y, z'
loop_
 _atom_site_type_symbol
 _atom_site_label
 _atom_site_symmetry_multiplicity
 _atom_site_fract_x
 _atom_site_fract_y
 _atom_site_fract_z
 _atom_site_occupancy
 _atom_site_charge
Cu  Cu1  1  0.66407000  0.33593000  0.82035000  1.0 0.7982017731
Cu  Cu2  1  0.33593000  0.66407000  0.17965000  1.0 0.7982017731
Cu  Cu3  1  0.66392000  0.33608000  0.67949000  1.0 0.7828780149
Cu  Cu4  1  0.33608000  0.66392000  0.32051000  1.0 0.7828780149
Cu  Cu5  1  0.16519000  0.83481000  0.74994000  1.0 0.2763660138
Cu  Cu6  1  0.83481000  0.16519000  0.25006000  1.0 0.2763660138
H  H1  1  0.99850000  0.20250000  0.03930000  1.0 0.0987134514
H  H2  1  0.20250000  0.99850000  0.96070000  1.0 0.0987134514
H  H3  1  0.00150000  0.79750000  0.96070000  1.0 0.0987134514
H  H4  1  0.79750000  0.00150000  0.03930000  1.0 0.0987134514
H  H5  1  0.18450000  0.20270000  0.02380000  1.0 0.0804804378
H  H6  1  0.20270000  0.18450000  0.97620000  1.0 0.0804804378
H  H7  1  0.81550000  0.79730000  0.97620000  1.0 0.0804804378
H  H8  1  0.79730000  0.81550000  0.02380000  1.0 0.0804804378
H  H9  1  0.27120000  0.04680000  0.98640000  1.0 0.0804804378
H  H10  1  0.04680000  0.27120000  0.01360000  1.0 0.0804804378
H  H11  1  0.72880000  0.95320000  0.01360000  1.0 0.0804804378
H  H12  1  0.95320000  0.72880000  0.98640000  1.0 0.0804804378
H  H13  1  0.22180000  0.63700000  0.66930000  1.0 0.0728032698
H  H14  1  0.63700000  0.22180000  0.33070000  1.0 0.0728032698
H  H15  1  0.77820000  0.36300000  0.33070000  1.0 0.0728032698
H  H16  1  0.36300000  0.77820000  0.66930000  1.0 0.0728032698
H  H17  1  0.35710000  0.77290000  0.83400000  1.0 0.0804804378
H  H18  1  0.77290000  0.35710000  0.16600000  1.0 0.0804804378
H  H19  1  0.64290000  0.22710000  0.16600000  1.0 0.0804804378
H  H20  1  0.22710000  0.64290000  0.83400000  1.0 0.0804804378
H  H21  1  0.49350000  0.64670000  0.83600000  1.0 0.0987134514
H  H22  1  0.64670000  0.49350000  0.16400000  1.0 0.0987134514
H  H23  1  0.50650000  0.35330000  0.16400000  1.0 0.0987134514
H  H24  1  0.35330000  0.50650000  0.83600000  1.0 0.0987134514
H  H25  1  0.85710000  0.04770000  0.65390000  1.0 0.0987134514
H  H26  1  0.04770000  0.85710000  0.34610000  1.0 0.0987134514
H  H27  1  0.14290000  0.95230000  0.34610000  1.0 0.0987134514
H  H28  1  0.95230000  0.14290000  0.65390000  1.0 0.0987134514
H  H29  1  0.97730000  0.90730000  0.65830000  1.0 0.0532631043
H  H30  1  0.90730000  0.97730000  0.34170000  1.0 0.0532631043
H  H31  1  0.02270000  0.09270000  0.34170000  1.0 0.0532631043
H  H32  1  0.09270000  0.02270000  0.65830000  1.0 0.0532631043
H  H33  1  0.94920000  0.13760000  0.84870000  1.0 0.0936076527
H  H34  1  0.13760000  0.94920000  0.15130000  1.0 0.0936076527
H  H35  1  0.05080000  0.86240000  0.15130000  1.0 0.0936076527
H  H36  1  0.86240000  0.05080000  0.84870000  1.0 0.0936076527
H  H37  1  0.09430000  0.02170000  0.83830000  1.0 0.0532631043
H  H38  1  0.02170000  0.09430000  0.16170000  1.0 0.0532631043
H  H39  1  0.90570000  0.97830000  0.16170000  1.0 0.0532631043
H  H40  1  0.97830000  0.90570000  0.83830000  1.0 0.0532631043
H  H41  1  0.79330000  0.99670000  0.46260000  1.0 0.0987134514
H  H42  1  0.99670000  0.79330000  0.53740000  1.0 0.0987134514
H  H43  1  0.20670000  0.00330000  0.53740000  1.0 0.0987134514
H  H44  1  0.00330000  0.20670000  0.46260000  1.0 0.0987134514
H  H45  1  0.95570000  0.72710000  0.51340000  1.0 0.0804804378
H  H46  1  0.72710000  0.95570000  0.48660000  1.0 0.0804804378
H  H47  1  0.04430000  0.27290000  0.48660000  1.0 0.0804804378
H  H48  1  0.27290000  0.04430000  0.51340000  1.0 0.0804804378
H  H49  1  0.80310000  0.80950000  0.46950000  1.0 0.061177238
H  H50  1  0.80950000  0.80310000  0.53050000  1.0 0.061177238
H  H51  1  0.19690000  0.19050000  0.53050000  1.0 0.061177238
H  H52  1  0.19050000  0.19690000  0.46950000  1.0 0.061177238
H  H53  1  0.35080000  0.50480000  0.66666667  1.0 0.0987134514
H  H54  1  0.50480000  0.35080000  0.33333333  1.0 0.0987134514
H  H55  1  0.64920000  0.49520000  0.33333333  1.0 0.0987134514
H  H56  1  0.49520000  0.64920000  0.66666667  1.0 0.0987134514
H  H57  1  0.34900000  0.90100000  0.65960000  1.0 0.0804804378
H  H58  1  0.90100000  0.34900000  0.34040000  1.0 0.0804804378
H  H59  1  0.65100000  0.09900000  0.34040000  1.0 0.0804804378
H  H60  1  0.09900000  0.65100000  0.65960000  1.0 0.0804804378
H  H61  1  0.34790000  0.90310000  0.84080000  1.0 0.0804804378
H  H62  1  0.90310000  0.34790000  0.15920000  1.0 0.0804804378
H  H63  1  0.65210000  0.09690000  0.15920000  1.0 0.0804804378
H  H64  1  0.09690000  0.65210000  0.84080000  1.0 0.0804804378
H  H65  1  0.23170000  0.02330000  0.66340000  1.0 0.061177238
H  H66  1  0.02330000  0.23170000  0.33660000  1.0 0.061177238
H  H67  1  0.76830000  0.97670000  0.33660000  1.0 0.061177238
H  H68  1  0.97670000  0.76830000  0.66340000  1.0 0.061177238
H  H69  1  0.23130000  0.02290000  0.83640000  1.0 0.061177238
H  H70  1  0.02290000  0.23130000  0.16360000  1.0 0.061177238
H  H71  1  0.76870000  0.97710000  0.16360000  1.0 0.061177238
H  H72  1  0.97710000  0.76870000  0.83640000  1.0 0.061177238
H  H73  1  0.47590000  0.03990000  0.65500000  1.0 0.118350893
H  H74  1  0.03990000  0.47590000  0.34500000  1.0 0.118350893
H  H75  1  0.52410000  0.96010000  0.34500000  1.0 0.118350893
H  H76  1  0.96010000  0.52410000  0.65500000  1.0 0.118350893
H  H77  1  0.36220000  0.15400000  0.84090000  1.0 0.1069847753
H  H78  1  0.15400000  0.36220000  0.15910000  1.0 0.1069847753
H  H79  1  0.63780000  0.84600000  0.15910000  1.0 0.1069847753
H  H80  1  0.84600000  0.63780000  0.84090000  1.0 0.1069847753
H  H81  1  0.47780000  0.03920000  0.84470000  1.0 0.118350893
H  H82  1  0.03920000  0.47780000  0.15530000  1.0 0.118350893
H  H83  1  0.52220000  0.96080000  0.15530000  1.0 0.118350893
H  H84  1  0.96080000  0.52220000  0.84470000  1.0 0.118350893
H  H85  1  0.36000000  0.15520000  0.66030000  1.0 0.1069847753
H  H86  1  0.15520000  0.36000000  0.33970000  1.0 0.1069847753
H  H87  1  0.64000000  0.84480000  0.33970000  1.0 0.1069847753
H  H88  1  0.84480000  0.64000000  0.66030000  1.0 0.1069847753
C  C1  1  0.80690000  0.19310000  0.74990000  1.0 0.5202135351
C  C2  1  0.19310000  0.80690000  0.25010000  1.0 0.5202135351
C  C3  1  0.43710000  0.56290000  0.75020000  1.0 -0.0126989515
C  C4  1  0.56290000  0.43710000  0.24980000  1.0 -0.0126989515
C  C5  1  0.52280000  0.19300000  0.74870000  1.0 0.5202135351
C  C6  1  0.19300000  0.52280000  0.25130000  1.0 0.5202135351
C  C7  1  0.47720000  0.80700000  0.25130000  1.0 0.5202135351
C  C8  1  0.80700000  0.47720000  0.74870000  1.0 0.5202135351
C  C9  1  0.43650000  0.10870000  0.74970000  1.0 0.011221292
C  C10  1  0.10870000  0.43650000  0.25030000  1.0 0.011221292
C  C11  1  0.56350000  0.89130000  0.25030000  1.0 0.011221292
C  C12  1  0.89130000  0.56350000  0.74970000  1.0 0.011221292
C  C13  1  0.52250000  0.47750000  0.75010000  1.0 0.5496116613
C  C14  1  0.47750000  0.52250000  0.24990000  1.0 0.5496116613
C  C15  1  0.89220000  0.10780000  0.74850000  1.0 0.011221292
C  C16  1  0.10780000  0.89220000  0.25150000  1.0 0.011221292
C  C17  1  0.03380000  0.13920000  0.02410000  1.0 -0.0126989515
C  C18  1  0.13920000  0.03380000  0.97590000  1.0 -0.0191136601
C  C19  1  0.96620000  0.86080000  0.97590000  1.0 -0.0126989515
C  C20  1  0.86080000  0.96620000  0.02410000  1.0 -0.0126989515
C  C21  1  0.14418000  0.13938000  0.01490000  1.0 -0.0385944704
C  C22  1  0.13938000  0.14418000  0.98510000  1.0 -0.0385944704
C  C23  1  0.85582000  0.86062000  0.98510000  1.0 -0.0385944704
C  C24  1  0.86062000  0.85582000  0.01490000  1.0 -0.0385944704
C  C25  1  0.19580000  0.04680000  0.99270000  1.0 -0.109114028
C  C26  1  0.04680000  0.19580000  0.00730000  1.0 -0.109114028
C  C27  1  0.80420000  0.95320000  0.00730000  1.0 -0.109114028
C  C28  1  0.95320000  0.80420000  0.99270000  1.0 -0.109114028
C  C29  1  0.13680000  0.95420000  0.97970000  1.0 -0.0897832858
C  C30  1  0.95420000  0.13680000  0.02030000  1.0 -0.0897832858
C  C31  1  0.86320000  0.04580000  0.02030000  1.0 -0.0897832858
C  C32  1  0.04580000  0.86320000  0.97970000  1.0 -0.0897832858
C  C33  1  0.02645000  0.95411000  0.98891000  1.0 -0.0385944704
C  C34  1  0.95411000  0.02645000  0.01109000  1.0 -0.0385944704
C  C35  1  0.97355000  0.04589000  0.01109000  1.0 -0.0385944704
C  C36  1  0.04589000  0.97355000  0.98891000  1.0 -0.0385944704
C  C37  1  0.27840000  0.63960000  0.70290000  1.0 -0.0126989515
C  C38  1  0.63960000  0.27840000  0.29710000  1.0 -0.0126989515
C  C39  1  0.72160000  0.36040000  0.29710000  1.0 -0.0126989515
C  C40  1  0.36040000  0.72160000  0.70290000  1.0 -0.0126989515
C  C41  1  0.35780000  0.71880000  0.79870000  1.0 -0.0191136601
C  C42  1  0.71880000  0.35780000  0.20130000  1.0 -0.0191136601
C  C43  1  0.64220000  0.28120000  0.20130000  1.0 -0.0191136601
C  C44  1  0.28120000  0.64220000  0.79870000  1.0 -0.0191136601
C  C45  1  0.43890000  0.64350000  0.80110000  1.0 -0.0809482197
C  C46  1  0.64350000  0.43890000  0.19890000  1.0 -0.0809482197
C  C47  1  0.56110000  0.35650000  0.19890000  1.0 -0.0809482197
C  C48  1  0.35650000  0.56110000  0.80110000  1.0 -0.0809482197
C  C49  1  0.90210000  0.03990000  0.69420000  1.0 -0.0585624988
C  C50  1  0.03990000  0.90210000  0.30580000  1.0 -0.0585624988
C  C51  1  0.09790000  0.96010000  0.30580000  1.0 -0.0585624988
C  C52  1  0.96010000  0.09790000  0.69420000  1.0 -0.0585624988
C  C53  1  0.97640000  0.95840000  0.69550000  1.0 -0.0126989515
C  C54  1  0.95840000  0.97640000  0.30450000  1.0 -0.0126989515
C  C55  1  0.02360000  0.04160000  0.30450000  1.0 -0.0126989515
C  C56  1  0.04160000  0.02360000  0.69550000  1.0 -0.0126989515
C  C57  1  0.95930000  0.09610000  0.80700000  1.0 -0.0695111208
C  C58  1  0.09610000  0.95930000  0.19300000  1.0 -0.0695111208
C  C59  1  0.04070000  0.90390000  0.19300000  1.0 -0.0695111208
C  C60  1  0.90390000  0.04070000  0.80700000  1.0 -0.0695111208
C  C61  1  0.04120000  0.02160000  0.80230000  1.0 0.0153958981
C  C62  1  0.02160000  0.04120000  0.19770000  1.0 0.0153958981
C  C63  1  0.95880000  0.97840000  0.19770000  1.0 0.0153958981
C  C64  1  0.97840000  0.95880000  0.80230000  1.0 0.0153958981
C  C65  1  0.95190000  0.02550000  0.48990000  1.0 -0.0126989515
C  C66  1  0.02550000  0.95190000  0.51010000  1.0 -0.0191136601
C  C67  1  0.04810000  0.97450000  0.51010000  1.0 -0.0191136601
C  C68  1  0.97450000  0.04810000  0.48990000  1.0 -0.0126989515
C  C69  1  0.85820000  0.96300000  0.47590000  1.0 -0.0191136601
C  C70  1  0.96300000  0.85820000  0.52410000  1.0 -0.0191136601
C  C71  1  0.14180000  0.03700000  0.52410000  1.0 -0.0191136601
C  C72  1  0.03700000  0.14180000  0.47590000  1.0 -0.0191136601
C  C73  1  0.95520000  0.80260000  0.50680000  1.0 -0.1041012712
C  C74  1  0.80260000  0.95520000  0.49320000  1.0 -0.1041012712
C  C75  1  0.04480000  0.19740000  0.49320000  1.0 -0.1041012712
C  C76  1  0.19740000  0.04480000  0.50680000  1.0 -0.1041012712
C  C77  1  0.86350000  0.85190000  0.48220000  1.0 -0.0304427533
C  C78  1  0.85190000  0.86350000  0.51780000  1.0 -0.0304427533
C  C79  1  0.13650000  0.14810000  0.51780000  1.0 -0.0385944704
C  C80  1  0.14810000  0.13650000  0.48220000  1.0 -0.0385944704
C  C81  1  0.04440000  0.86100000  0.52150000  1.0 -0.1041012712
C  C82  1  0.86100000  0.04440000  0.47850000  1.0 -0.1041012712
C  C83  1  0.95560000  0.13900000  0.47850000  1.0 -0.1041012712
C  C84  1  0.13900000  0.95560000  0.52150000  1.0 -0.109114028
C  C85  1  0.35470000  0.56030000  0.70100000  1.0 -0.0809482197
C  C86  1  0.56030000  0.35470000  0.29900000  1.0 -0.0897832858
C  C87  1  0.64530000  0.43970000  0.29900000  1.0 -0.0897832858
C  C88  1  0.43970000  0.64530000  0.70100000  1.0 -0.0809482197
C  C89  1  0.35120000  0.95360000  0.69590000  1.0 -0.0304427533
C  C90  1  0.95360000  0.35120000  0.30410000  1.0 -0.0304427533
C  C91  1  0.64880000  0.04640000  0.30410000  1.0 -0.0304427533
C  C92  1  0.04640000  0.64880000  0.69590000  1.0 -0.0304427533
C  C93  1  0.35130000  0.95490000  0.80400000  1.0 -0.0304427533
C  C94  1  0.95490000  0.35130000  0.19600000  1.0 -0.0304427533
C  C95  1  0.64870000  0.04510000  0.19600000  1.0 -0.0304427533
C  C96  1  0.04510000  0.64870000  0.80400000  1.0 -0.0304427533
C  C97  1  0.28420000  0.02500000  0.69980000  1.0 0.011221292
C  C98  1  0.02500000  0.28420000  0.30020000  1.0 0.011221292
C  C99  1  0.71580000  0.97500000  0.30020000  1.0 0.011221292
C  C100  1  0.97500000  0.71580000  0.69980000  1.0 0.011221292
C  C101  1  0.28420000  0.02460000  0.80030000  1.0 0.011221292
C  C102  1  0.02460000  0.28420000  0.19970000  1.0 0.011221292
C  C103  1  0.71580000  0.97540000  0.19970000  1.0 0.011221292
C  C104  1  0.97540000  0.71580000  0.80030000  1.0 0.011221292
C  C105  1  0.42850000  0.03470000  0.69420000  1.0 -0.0695111208
C  C106  1  0.03470000  0.42850000  0.30580000  1.0 -0.0695111208
C  C107  1  0.57150000  0.96530000  0.30580000  1.0 -0.0695111208
C  C108  1  0.96530000  0.57150000  0.69420000  1.0 -0.0695111208
C  C109  1  0.36110000  0.10390000  0.80310000  1.0 -0.0809482197
C  C110  1  0.10390000  0.36110000  0.19690000  1.0 -0.0809482197
C  C111  1  0.63890000  0.89610000  0.19690000  1.0 -0.0809482197
C  C112  1  0.89610000  0.63890000  0.80310000  1.0 -0.0809482197
C  C113  1  0.42950000  0.03470000  0.80590000  1.0 -0.0695111208
C  C114  1  0.03470000  0.42950000  0.19410000  1.0 -0.0695111208
C  C115  1  0.57050000  0.96530000  0.19410000  1.0 -0.0695111208
C  C116  1  0.96530000  0.57050000  0.80590000  1.0 -0.0695111208
C  C117  1  0.36020000  0.10400000  0.69760000  1.0 -0.0897832858
C  C118  1  0.10400000  0.36020000  0.30240000  1.0 -0.0897832858
C  C119  1  0.63980000  0.89600000  0.30240000  1.0 -0.0897832858
C  C120  1  0.89600000  0.63980000  0.69760000  1.0 -0.0897832858
S  S1  1  0.15751000  0.79099000  0.55471000  1.0 0.5202135351
S  S2  1  0.79099000  0.15751000  0.44529000  1.0 0.5202135351
S  S3  1  0.84249000  0.20901000  0.44529000  1.0 0.5202135351
S  S4  1  0.20901000  0.84249000  0.55471000  1.0 0.5202135351
S  S5  1  0.20851000  0.84295000  0.94498000  1.0 0.5202135351
S  S6  1  0.84295000  0.20851000  0.05502000  1.0 0.5202135351
S  S7  1  0.79149000  0.15705000  0.05502000  1.0 0.5202135351
S  S8  1  0.15705000  0.79149000  0.94498000  1.0 0.5202135351
N  N1  1  0.28000000  0.72000000  0.74960000  1.0 -0.0585624988
N  N2  1  0.72000000  0.28000000  0.25040000  1.0 -0.0536165284
N  N3  1  0.05000000  0.95000000  0.75030000  1.0 -0.2029795016
N  N4  1  0.95000000  0.05000000  0.24970000  1.0 -0.2029795016
N  N5  1  0.27960000  0.95040000  0.74980000  1.0 -0.1662373657
N  N6  1  0.95040000  0.27960000  0.25020000  1.0 -0.1662373657
N  N7  1  0.72040000  0.04960000  0.25020000  1.0 -0.1662373657
N  N8  1  0.04960000  0.72040000  0.74980000  1.0 -0.1662373657
O  O1  1  0.16550000  0.83450000  0.87390000  1.0 -0.4570189381
O  O2  1  0.83450000  0.16550000  0.12610000  1.0 -0.4570189381
O  O3  1  0.16550000  0.83450000  0.62570000  1.0 -0.4570189381
O  O4  1  0.83450000  0.16550000  0.37430000  1.0 -0.4570189381
O  O5  1  0.55460000  0.44540000  0.68980000  1.0 -0.5314436222
O  O6  1  0.44540000  0.55460000  0.31020000  1.0 -0.5314436222
O  O7  1  0.55400000  0.44600000  0.80950000  1.0 -0.5162699287
O  O8  1  0.44600000  0.55400000  0.19050000  1.0 -0.5162699287
O  O9  1  0.77520000  0.22480000  0.69010000  1.0 -0.5089564714
O  O10  1  0.22480000  0.77520000  0.30990000  1.0 -0.5162699287
O  O11  1  0.55300000  0.22480000  0.69120000  1.0 -0.4767579699
O  O12  1  0.22480000  0.55300000  0.30880000  1.0 -0.4767579699
O  O13  1  0.44700000  0.77520000  0.30880000  1.0 -0.4767579699
O  O14  1  0.77520000  0.44700000  0.69120000  1.0 -0.4767579699
O  O15  1  0.55380000  0.22420000  0.80870000  1.0 -0.5089564714
O  O16  1  0.22420000  0.55380000  0.19130000  1.0 -0.5089564714
O  O17  1  0.44620000  0.77580000  0.19130000  1.0 -0.5089564714
O  O18  1  0.77580000  0.44620000  0.80870000  1.0 -0.5089564714
O  O19  1  0.77510000  0.22490000  0.80950000  1.0 -0.5089564714
O  O20  1  0.22490000  0.77510000  0.19050000  1.0 -0.5089564714
O  O21  1  0.25150000  0.81930000  0.50950000  1.0 -0.0385944704
O  O22  1  0.81930000  0.25150000  0.49050000  1.0 -0.0385944704
O  O23  1  0.74850000  0.18070000  0.49050000  1.0 -0.0385944704
O  O24  1  0.18070000  0.74850000  0.50950000  1.0 -0.0385944704
O  O25  1  0.32380000  0.87220000  0.94280000  1.0 -0.4036632741
O  O26  1  0.87220000  0.32380000  0.05720000  1.0 -0.4036632741
O  O27  1  0.67620000  0.12780000  0.05720000  1.0 -0.4036632741
O  O28  1  0.12780000  0.67620000  0.94280000  1.0 -0.4036632741
O  O29  1  0.12820000  0.67580000  0.55600000  1.0 -0.4082443754
O  O30  1  0.67580000  0.12820000  0.44400000  1.0 -0.4082443754
O  O31  1  0.87180000  0.32420000  0.44400000  1.0 -0.4082443754
O  O32  1  0.32420000  0.87180000  0.55600000  1.0 -0.4082443754
O  O33  1  0.17990000  0.74730000  0.98970000  1.0 -0.0536165284
O  O34  1  0.74730000  0.17990000  0.01030000  1.0 -0.0536165284
O  O35  1  0.82010000  0.25270000  0.01030000  1.0 -0.0536165284
O  O36  1  0.25270000  0.82010000  0.98970000  1.0 -0.0536165284
