# DDEC6 charges by PACMAN v1.1 (https://github.com/mtap-research/PACMAN-charge/)
data_ZAHLEC_ASR_pacman
_symmetry_space_group_name_H-M   'P 1'
_cell_length_a   23.76060000
_cell_length_b   23.76060000
_cell_length_c   23.76060000
_cell_angle_alpha   151.55000000
_cell_angle_beta   96.03710000
_cell_angle_gamma   90.89340000
_symmetry_Int_Tables_number   1
_chemical_formula_structural   Cu3H40C60S2(N4O9)2
_chemical_formula_sum   'Cu6 H80 C120 S4 N16 O36'
_cell_volume   6187.54323213
_cell_formula_units_Z   2
loop_
 _symmetry_equiv_pos_site_id
 _symmetry_equiv_pos_as_xyz
  1  'x, y, z'
loop_
 _atom_site_type_symbol
 _atom_site_label
 _atom_site_symmetry_multiplicity
 _atom_site_fract_x
 _atom_site_fract_y
 _atom_site_fract_z
 _atom_site_occupancy
 _atom_site_charge
Cu  Cu1  1  0.00000000  0.50000000  0.50000000  1.0 0.5237525792
Cu  Cu2  1  0.50000000  0.00000000  0.50000000  1.0 0.5293883176
Cu  Cu3  1  0.02376000  0.09324000  0.61700000  1.0 0.8581427874
Cu  Cu4  1  0.47624000  0.09324000  0.06948000  1.0 0.8581427874
Cu  Cu5  1  0.97624000  0.90676000  0.38300000  1.0 0.8581427874
Cu  Cu6  1  0.52376000  0.90676000  0.93052000  1.0 0.8581427874
H  H1  1  0.00410000  0.34560000  0.46970000  1.0 0.1057882987
H  H2  1  0.49590000  0.96560000  0.34150000  1.0 0.1057882987
H  H3  1  0.37590000  0.03440000  0.53030000  1.0 0.1057882987
H  H4  1  0.12410000  0.65440000  0.65850000  1.0 0.1057882987
H  H5  1  0.99590000  0.65440000  0.53030000  1.0 0.1057882987
H  H6  1  0.50410000  0.03440000  0.65850000  1.0 0.1057882987
H  H7  1  0.62410000  0.96560000  0.46970000  1.0 0.1057882987
H  H8  1  0.87590000  0.34560000  0.34150000  1.0 0.1057882987
H  H9  1  0.04010000  0.38200000  0.75170000  1.0 0.1325968607
H  H10  1  0.45990000  0.21160000  0.34190000  1.0 0.1325968607
H  H11  1  0.13030000  0.78840000  0.24830000  1.0 0.1325968607
H  H12  1  0.36970000  0.61800000  0.65810000  1.0 0.1325968607
H  H13  1  0.95990000  0.61800000  0.24830000  1.0 0.1325968607
H  H14  1  0.54010000  0.78840000  0.65810000  1.0 0.1325968607
H  H15  1  0.86970000  0.21160000  0.75170000  1.0 0.1325968607
H  H16  1  0.63030000  0.38200000  0.34190000  1.0 0.1325968607
H  H17  1  0.96990000  0.22660000  0.43290000  1.0 0.118504035
H  H18  1  0.53010000  0.96300000  0.25670000  1.0 0.118504035
H  H19  1  0.29370000  0.03700000  0.56710000  1.0 0.118504035
H  H20  1  0.20630000  0.77340000  0.74330000  1.0 0.118504035
H  H21  1  0.03010000  0.77340000  0.56710000  1.0 0.118504035
H  H22  1  0.46990000  0.03700000  0.74330000  1.0 0.118504035
H  H23  1  0.70630000  0.96300000  0.43290000  1.0 0.118504035
H  H24  1  0.79370000  0.22660000  0.25670000  1.0 0.118504035
H  H25  1  0.96850000  0.09580000  0.39430000  1.0 0.1325968607
H  H26  1  0.53150000  0.92580000  0.12730000  1.0 0.1325968607
H  H27  1  0.20150000  0.07420000  0.60570000  1.0 0.1325968607
H  H28  1  0.29850000  0.90420000  0.87270000  1.0 0.1325968607
H  H29  1  0.03150000  0.90420000  0.60570000  1.0 0.1325968607
H  H30  1  0.46850000  0.07420000  0.87270000  1.0 0.1325968607
H  H31  1  0.79850000  0.92580000  0.39430000  1.0 0.1325968607
H  H32  1  0.70150000  0.09580000  0.12730000  1.0 0.1325968607
H  H33  1  0.04170000  0.51240000  0.79010000  1.0 0.118504035
H  H34  1  0.45830000  0.24840000  0.47070000  1.0 0.118504035
H  H35  1  0.22230000  0.75160000  0.20990000  1.0 0.118504035
H  H36  1  0.27770000  0.48760000  0.52930000  1.0 0.118504035
H  H37  1  0.95830000  0.48760000  0.20990000  1.0 0.118504035
H  H38  1  0.54170000  0.75160000  0.52930000  1.0 0.118504035
H  H39  1  0.77770000  0.24840000  0.79010000  1.0 0.118504035
H  H40  1  0.72230000  0.51240000  0.47070000  1.0 0.118504035
H  H41  1  0.00750000  0.62850000  0.81800000  1.0 0.1325968607
H  H42  1  0.49250000  0.31050000  0.62100000  1.0 0.1325968607
H  H43  1  0.31050000  0.68950000  0.18200000  1.0 0.1325968607
H  H44  1  0.18950000  0.37150000  0.37900000  1.0 0.1325968607
H  H45  1  0.99250000  0.37150000  0.18200000  1.0 0.1325968607
H  H46  1  0.50750000  0.68950000  0.37900000  1.0 0.1325968607
H  H47  1  0.68950000  0.31050000  0.81800000  1.0 0.1325968607
H  H48  1  0.81050000  0.62850000  0.62100000  1.0 0.1325968607
H  H49  1  0.00830000  0.69320000  0.77570000  1.0 0.118504035
H  H50  1  0.49170000  0.26740000  0.68490000  1.0 0.118504035
H  H51  1  0.41750000  0.73260000  0.22430000  1.0 0.118504035
H  H52  1  0.08250000  0.30680000  0.31510000  1.0 0.118504035
H  H53  1  0.99170000  0.30680000  0.22430000  1.0 0.118504035
H  H54  1  0.50830000  0.73260000  0.31510000  1.0 0.118504035
H  H55  1  0.58250000  0.26740000  0.77570000  1.0 0.118504035
H  H56  1  0.91750000  0.69320000  0.68490000  1.0 0.118504035
H  H57  1  0.04740000  0.13650000  0.21070000  1.0 0.0918022261
H  H58  1  0.45260000  0.66330000  0.08910000  1.0 0.0918022261
H  H59  1  0.42580000  0.33670000  0.78930000  1.0 0.0918022261
H  H60  1  0.07420000  0.86350000  0.91090000  1.0 0.0918022261
H  H61  1  0.95260000  0.86350000  0.78930000  1.0 0.0918022261
H  H62  1  0.54740000  0.33670000  0.91090000  1.0 0.0918022261
H  H63  1  0.57420000  0.66330000  0.21070000  1.0 0.0918022261
H  H64  1  0.92580000  0.13650000  0.08910000  1.0 0.0918022261
H  H65  1  0.14130000  0.97310000  0.97220000  1.0 0.1509006101
H  H66  1  0.35870000  0.33090000  0.83180000  1.0 0.1509006101
H  H67  1  0.50090000  0.66910000  0.02780000  1.0 0.1509006101
H  H68  1  0.99910000  0.02690000  0.16820000  1.0 0.1509006101
H  H69  1  0.85870000  0.02690000  0.02780000  1.0 0.1509006101
H  H70  1  0.64130000  0.66910000  0.16820000  1.0 0.1509006101
H  H71  1  0.49910000  0.33090000  0.97220000  1.0 0.1509006101
H  H72  1  0.00090000  0.97310000  0.83180000  1.0 0.1509006101
H  H73  1  0.13540000  0.09870000  0.16150000  1.0 0.1023038344
H  H74  1  0.36460000  0.52610000  0.96330000  1.0 0.1023038344
H  H75  1  0.43720000  0.47390000  0.83850000  1.0 0.1023038344
H  H76  1  0.06280000  0.90130000  0.03670000  1.0 0.1023038344
H  H77  1  0.86460000  0.90130000  0.83850000  1.0 0.1023038344
H  H78  1  0.63540000  0.47390000  0.03670000  1.0 0.1023038344
H  H79  1  0.56280000  0.52610000  0.16150000  1.0 0.1023038344
H  H80  1  0.93720000  0.09870000  0.96330000  1.0 0.1023038344
C  C1  1  0.00528000  0.42590000  0.55278000  1.0 0.0918022261
C  C2  1  0.49472000  0.04750000  0.42062000  1.0 0.0918022261
C  C3  1  0.37312000  0.95250000  0.44722000  1.0 0.0918022261
C  C4  1  0.12688000  0.57410000  0.57938000  1.0 0.0918022261
C  C5  1  0.99472000  0.57410000  0.44722000  1.0 0.0918022261
C  C6  1  0.50528000  0.95250000  0.57938000  1.0 0.0918022261
C  C7  1  0.62688000  0.04750000  0.55278000  1.0 0.0918022261
C  C8  1  0.87312000  0.42590000  0.42062000  1.0 0.0918022261
C  C9  1  0.00633000  0.22681000  0.56972000  1.0 -0.0416076754
C  C10  1  0.49367000  0.06339000  0.22048000  1.0 -0.0416076754
C  C11  1  0.15709000  0.93661000  0.43028000  1.0 -0.0416076754
C  C12  1  0.34291000  0.77319000  0.77952000  1.0 -0.0416076754
C  C13  1  0.99367000  0.77319000  0.43028000  1.0 -0.0416076754
C  C14  1  0.50633000  0.93661000  0.77952000  1.0 -0.0416076754
C  C15  1  0.84291000  0.06339000  0.56972000  1.0 -0.0416076754
C  C16  1  0.65709000  0.22681000  0.22048000  1.0 -0.0416076754
C  C17  1  0.00559000  0.14086000  0.54213000  1.0 0.5716708691
C  C18  1  0.49441000  0.03654000  0.13527000  1.0 0.5716708691
C  C19  1  0.09873000  0.96346000  0.45787000  1.0 0.5716708691
C  C20  1  0.40127000  0.85914000  0.86473000  1.0 0.5716708691
C  C21  1  0.99441000  0.85914000  0.45787000  1.0 0.5716708691
C  C22  1  0.50559000  0.96346000  0.86473000  1.0 0.5716708691
C  C23  1  0.90127000  0.03654000  0.54213000  1.0 0.5716708691
C  C24  1  0.59873000  0.14086000  0.13527000  1.0 0.5716708691
C  C25  1  0.00626000  0.38012000  0.61374000  1.0 0.1509006101
C  C26  1  0.49374000  0.10748000  0.37386000  1.0 0.1509006101
C  C27  1  0.26638000  0.89252000  0.38626000  1.0 0.1556010277
C  C28  1  0.23362000  0.61988000  0.62614000  1.0 0.1556010277
C  C29  1  0.99374000  0.61988000  0.38626000  1.0 0.1556010277
C  C30  1  0.50626000  0.89252000  0.62614000  1.0 0.1556010277
C  C31  1  0.73362000  0.10748000  0.61374000  1.0 0.1509006101
C  C32  1  0.76638000  0.38012000  0.37386000  1.0 0.1556010277
C  C33  1  0.02651000  0.34984000  0.68627000  1.0 -0.0704770282
C  C34  1  0.47349000  0.15976000  0.32333000  1.0 -0.0704770282
C  C35  1  0.16357000  0.84024000  0.31373000  1.0 -0.0704770282
C  C36  1  0.33643000  0.65016000  0.67667000  1.0 -0.0704770282
C  C37  1  0.97349000  0.65016000  0.31373000  1.0 -0.0704770282
C  C38  1  0.52651000  0.84024000  0.67667000  1.0 -0.0704770282
C  C39  1  0.83643000  0.15976000  0.68627000  1.0 -0.0704770282
C  C40  1  0.66357000  0.34984000  0.32333000  1.0 -0.0704770282
C  C41  1  0.98459000  0.25821000  0.49778000  1.0 -0.1888445346
C  C42  1  0.51541000  0.01319000  0.27362000  1.0 -0.195765059
C  C43  1  0.26043000  0.98681000  0.50222000  1.0 -0.195765059
C  C44  1  0.23957000  0.74179000  0.72638000  1.0 -0.195765059
C  C45  1  0.01541000  0.74179000  0.50222000  1.0 -0.195765059
C  C46  1  0.48459000  0.98681000  0.72638000  1.0 -0.195765059
C  C47  1  0.73957000  0.01319000  0.49778000  1.0 -0.195765059
C  C48  1  0.76043000  0.25821000  0.27362000  1.0 -0.1888445346
C  C49  1  0.98407000  0.18050000  0.47477000  1.0 -0.0704770282
C  C50  1  0.51593000  0.99070000  0.19643000  1.0 -0.0704770282
C  C51  1  0.20573000  0.00930000  0.52523000  1.0 -0.0704770282
C  C52  1  0.29427000  0.81950000  0.80357000  1.0 -0.0704770282
C  C53  1  0.01593000  0.81950000  0.52523000  1.0 -0.0704770282
C  C54  1  0.48407000  0.00930000  0.80357000  1.0 -0.0704770282
C  C55  1  0.79427000  0.99070000  0.47477000  1.0 -0.0704770282
C  C56  1  0.70573000  0.18050000  0.19643000  1.0 -0.0704770282
C  C57  1  0.02714000  0.42750000  0.70944000  1.0 -0.1888445346
C  C58  1  0.47286000  0.18230000  0.40036000  1.0 -0.1888445346
C  C59  1  0.21806000  0.81770000  0.29056000  1.0 -0.1888445346
C  C60  1  0.28194000  0.57250000  0.59964000  1.0 -0.1888445346
C  C61  1  0.97286000  0.57250000  0.29056000  1.0 -0.1888445346
C  C62  1  0.52714000  0.81770000  0.59964000  1.0 -0.1888445346
C  C63  1  0.78194000  0.18230000  0.70944000  1.0 -0.1888445346
C  C64  1  0.71806000  0.42750000  0.40036000  1.0 -0.1888445346
C  C65  1  0.00722000  0.57845000  0.74177000  1.0 -0.1134263783
C  C66  1  0.49278000  0.23455000  0.57123000  1.0 -0.1134263783
C  C67  1  0.33668000  0.76545000  0.25823000  1.0 -0.1134263783
C  C68  1  0.16332000  0.42155000  0.42877000  1.0 -0.1134263783
C  C69  1  0.99278000  0.42155000  0.25823000  1.0 -0.1134263783
C  C70  1  0.50722000  0.76545000  0.42877000  1.0 -0.1134263783
C  C71  1  0.66332000  0.23455000  0.74177000  1.0 -0.1134263783
C  C72  1  0.83668000  0.57845000  0.57123000  1.0 -0.1134263783
C  C73  1  0.00732000  0.61302000  0.71770000  1.0 -0.0169551338
C  C74  1  0.49268000  0.21038000  0.60570000  1.0 -0.0169551338
C  C75  1  0.39532000  0.78962000  0.28230000  1.0 -0.0169551338
C  C76  1  0.10468000  0.38698000  0.39430000  1.0 -0.0169551338
C  C77  1  0.99268000  0.38698000  0.28230000  1.0 -0.0169551338
C  C78  1  0.50732000  0.78962000  0.39430000  1.0 -0.0169551338
C  C79  1  0.60468000  0.21038000  0.71770000  1.0 -0.0169551338
C  C80  1  0.89532000  0.61302000  0.60570000  1.0 -0.0169551338
C  C81  1  0.05666000  0.93952000  0.91574000  1.0 -0.0132547883
C  C82  1  0.44334000  0.35908000  0.88286000  1.0 -0.0132547883
C  C83  1  0.52378000  0.64092000  0.08426000  1.0 -0.0132547883
C  C84  1  0.97622000  0.06048000  0.11714000  1.0 -0.0132547883
C  C85  1  0.94334000  0.06048000  0.08426000  1.0 -0.0132547883
C  C86  1  0.55666000  0.64092000  0.11714000  1.0 -0.0132547883
C  C87  1  0.47622000  0.35908000  0.91574000  1.0 -0.0132547883
C  C88  1  0.02378000  0.93952000  0.88286000  1.0 -0.0132547883
C  C89  1  0.04950000  0.08671000  0.13539000  1.0 -0.0416076754
C  C90  1  0.45050000  0.58589000  0.03721000  1.0 -0.0416076754
C  C91  1  0.45132000  0.41411000  0.86461000  1.0 -0.0416076754
C  C92  1  0.04868000  0.91329000  0.96279000  1.0 -0.0416076754
C  C93  1  0.95050000  0.91329000  0.86461000  1.0 -0.0416076754
C  C94  1  0.54950000  0.41411000  0.96279000  1.0 -0.0416076754
C  C95  1  0.54868000  0.58589000  0.13539000  1.0 -0.0416076754
C  C96  1  0.95132000  0.08671000  0.03721000  1.0 -0.0416076754
C  C97  1  0.10501000  0.98856000  0.99285000  1.0 -0.1685426303
C  C98  1  0.39499000  0.38784000  0.88355000  1.0 -0.1685426303
C  C99  1  0.49571000  0.61216000  0.00715000  1.0 -0.1685426303
C  C100  1  0.00429000  0.01144000  0.11645000  1.0 -0.1685426303
C  C101  1  0.89499000  0.01144000  0.00715000  1.0 -0.1685426303
C  C102  1  0.60501000  0.61216000  0.11645000  1.0 -0.1685426303
C  C103  1  0.50429000  0.38784000  0.99285000  1.0 -0.1685426303
C  C104  1  0.99571000  0.98856000  0.88355000  1.0 -0.1685426303
C  C105  1  0.10145000  0.06430000  0.10655000  1.0 -0.2276106572
C  C106  1  0.39855000  0.50510000  0.96285000  1.0 -0.2276106572
C  C107  1  0.45775000  0.49490000  0.89345000  1.0 -0.2276106572
C  C108  1  0.04225000  0.93570000  0.03715000  1.0 -0.2276106572
C  C109  1  0.89855000  0.93570000  0.89345000  1.0 -0.2276106572
C  C110  1  0.60145000  0.49490000  0.03715000  1.0 -0.2276106572
C  C111  1  0.54225000  0.50510000  0.10655000  1.0 -0.2276106572
C  C112  1  0.95775000  0.06430000  0.96285000  1.0 -0.2276106572
C  C113  1  0.99816000  0.03794000  0.05642000  1.0 0.0292313982
C  C114  1  0.50184000  0.55826000  0.03978000  1.0 0.0292313982
C  C115  1  0.48152000  0.44174000  0.94358000  1.0 0.0292313982
C  C116  1  0.01848000  0.96206000  0.96022000  1.0 0.0292313982
C  C117  1  0.00184000  0.96206000  0.94358000  1.0 0.0292313982
C  C118  1  0.49816000  0.44174000  0.96022000  1.0 0.0292313982
C  C119  1  0.51848000  0.55826000  0.05642000  1.0 0.0292313982
C  C120  1  0.98152000  0.03794000  0.03978000  1.0 0.0292313982
S  S1  1  0.06378000  0.83296000  0.76918000  1.0 0.7458893748
S  S2  1  0.43622000  0.20540000  0.76918000  1.0 0.7427530379
S  S3  1  0.56378000  0.79460000  0.23082000  1.0 0.7427530379
S  S4  1  0.93622000  0.16704000  0.23082000  1.0 0.7427530379
N  N1  1  0.00589000  0.51639000  0.59866000  1.0 -0.2403045466
N  N2  1  0.49411000  0.09277000  0.51050000  1.0 -0.2403045466
N  N3  1  0.41773000  0.90723000  0.40134000  1.0 -0.2403045466
N  N4  1  0.08227000  0.48361000  0.48950000  1.0 -0.2403045466
N  N5  1  0.99411000  0.48361000  0.40134000  1.0 -0.2403045466
N  N6  1  0.50589000  0.90723000  0.48950000  1.0 -0.2403045466
N  N7  1  0.58227000  0.09277000  0.59866000  1.0 -0.2403045466
N  N8  1  0.91773000  0.51639000  0.51050000  1.0 -0.2403045466
N  N9  1  0.00658000  0.45869000  0.63629000  1.0 0.0198905121
N  N10  1  0.49342000  0.12971000  0.45211000  1.0 0.0198905121
N  N11  1  0.32240000  0.87029000  0.36371000  1.0 0.0198905121
N  N12  1  0.17760000  0.54131000  0.54789000  1.0 0.0198905121
N  N13  1  0.99342000  0.54131000  0.36371000  1.0 0.0198905121
N  N14  1  0.50658000  0.87029000  0.54789000  1.0 0.0198905121
N  N15  1  0.67760000  0.12971000  0.63629000  1.0 0.0198905121
N  N16  1  0.82240000  0.45869000  0.45211000  1.0 0.0198905121
O  O1  1  0.03092000  0.71728000  0.68636000  1.0 -0.6107315926
O  O2  1  0.46908000  0.15544000  0.68636000  1.0 -0.6107315926
O  O3  1  0.53092000  0.84456000  0.31364000  1.0 -0.6107315926
O  O4  1  0.96908000  0.28272000  0.31364000  1.0 -0.6107315926
O  O5  1  0.02499000  0.18912000  0.63287000  1.0 -0.5289498849
O  O6  1  0.47501000  0.10788000  0.16413000  1.0 -0.5289498849
O  O7  1  0.05625000  0.89212000  0.36713000  1.0 -0.5289498849
O  O8  1  0.44375000  0.81088000  0.83587000  1.0 -0.5289498849
O  O9  1  0.97501000  0.81088000  0.36713000  1.0 -0.5289498849
O  O10  1  0.52499000  0.89212000  0.83587000  1.0 -0.5289498849
O  O11  1  0.94375000  0.10788000  0.63287000  1.0 -0.5289498849
O  O12  1  0.55625000  0.18912000  0.16413000  1.0 -0.5289498849
O  O13  1  0.98567000  0.02986000  0.43361000  1.0 -0.5289498849
O  O14  1  0.51433000  0.94794000  0.04419000  1.0 -0.5289498849
O  O15  1  0.09625000  0.05206000  0.56639000  1.0 -0.5289498849
O  O16  1  0.40375000  0.97014000  0.95581000  1.0 -0.5289498849
O  O17  1  0.01433000  0.97014000  0.56639000  1.0 -0.5289498849
O  O18  1  0.48567000  0.05206000  0.95581000  1.0 -0.5289498849
O  O19  1  0.90375000  0.94794000  0.43361000  1.0 -0.5289498849
O  O20  1  0.59625000  0.02986000  0.04419000  1.0 -0.5289498849
O  O21  1  0.03788000  0.86898000  0.74630000  1.0 -0.0832898452
O  O22  1  0.46212000  0.20842000  0.83110000  1.0 -0.0832898452
O  O23  1  0.62268000  0.79158000  0.25370000  1.0 -0.0853499903
O  O24  1  0.87732000  0.13102000  0.16890000  1.0 -0.0832898452
O  O25  1  0.96212000  0.13102000  0.25370000  1.0 -0.0832898452
O  O26  1  0.53788000  0.79158000  0.16890000  1.0 -0.0853499903
O  O27  1  0.37732000  0.20842000  0.74630000  1.0 -0.0853499903
O  O28  1  0.12268000  0.86898000  0.83110000  1.0 -0.0832898452
O  O29  1  0.12450000  0.83656000  0.77334000  1.0 -0.1685426303
O  O30  1  0.37550000  0.14884000  0.71206000  1.0 -0.1685426303
O  O31  1  0.56322000  0.85116000  0.22666000  1.0 -0.1685426303
O  O32  1  0.93678000  0.16344000  0.28794000  1.0 -0.1685426303
O  O33  1  0.87550000  0.16344000  0.22666000  1.0 -0.1685426303
O  O34  1  0.62450000  0.85116000  0.28794000  1.0 -0.1685426303
O  O35  1  0.43678000  0.14884000  0.77334000  1.0 -0.1685426303
O  O36  1  0.06322000  0.83656000  0.71206000  1.0 -0.1685426303
