# DDEC6 charges by PACMAN v1.1 (https://github.com/mtap-research/PACMAN-charge/)
data_ZAHLAY_ASR_pacman
_symmetry_space_group_name_H-M   'P 1'
_cell_length_a   15.65000000
_cell_length_b   15.65000000
_cell_length_c   8.34800000
_cell_angle_alpha   90.00000000
_cell_angle_beta   90.00000000
_cell_angle_gamma   90.00000000
_symmetry_Int_Tables_number   1
_chemical_formula_structural   Cu9H48C64(NO6)4
_chemical_formula_sum   'Cu9 H48 C64 N4 O24'
_cell_volume   2044.61303000
_cell_formula_units_Z   1
loop_
 _symmetry_equiv_pos_site_id
 _symmetry_equiv_pos_as_xyz
  1  'x, y, z'
loop_
 _atom_site_type_symbol
 _atom_site_label
 _atom_site_symmetry_multiplicity
 _atom_site_fract_x
 _atom_site_fract_y
 _atom_site_fract_z
 _atom_site_occupancy
 _atom_site_charge
Cu  Cu1  1  0.50000000  0.50000000  0.00000000  1.0 0.169105259
Cu  Cu2  1  0.00000000  0.01790000  0.15050000  1.0 0.2681788255
Cu  Cu3  1  0.01790000  0.00000000  0.15050000  1.0 0.2681788255
Cu  Cu4  1  0.00000000  0.98210000  0.15050000  1.0 0.2681788255
Cu  Cu5  1  0.98210000  0.00000000  0.15050000  1.0 0.2681788255
Cu  Cu6  1  0.00000000  0.01790000  0.84950000  1.0 0.2681788255
Cu  Cu7  1  0.00000000  0.98210000  0.84950000  1.0 0.2681788255
Cu  Cu8  1  0.01790000  0.00000000  0.84950000  1.0 0.2681788255
Cu  Cu9  1  0.98210000  0.00000000  0.84950000  1.0 0.2681788255
H  H1  1  0.29210000  0.29210000  0.77320000  1.0 0.1018511916
H  H2  1  0.29210000  0.70790000  0.77320000  1.0 0.1018511916
H  H3  1  0.70790000  0.70790000  0.77320000  1.0 0.1018511916
H  H4  1  0.70790000  0.29210000  0.77320000  1.0 0.1018511916
H  H5  1  0.70790000  0.29210000  0.22680000  1.0 0.1018511916
H  H6  1  0.29210000  0.70790000  0.22680000  1.0 0.1018511916
H  H7  1  0.29210000  0.29210000  0.22680000  1.0 0.1018511916
H  H8  1  0.70790000  0.70790000  0.22680000  1.0 0.1018511916
H  H9  1  0.39600000  0.39600000  0.76810000  1.0 0.1018511916
H  H10  1  0.39600000  0.60400000  0.76810000  1.0 0.1018511916
H  H11  1  0.60400000  0.60400000  0.76810000  1.0 0.1018511916
H  H12  1  0.60400000  0.39600000  0.76810000  1.0 0.1018511916
H  H13  1  0.60400000  0.39600000  0.23190000  1.0 0.1018511916
H  H14  1  0.39600000  0.60400000  0.23190000  1.0 0.1018511916
H  H15  1  0.39600000  0.39600000  0.23190000  1.0 0.1018511916
H  H16  1  0.60400000  0.60400000  0.23190000  1.0 0.1018511916
H  H17  1  0.19320000  0.19320000  0.80010000  1.0 0.0803213466
H  H18  1  0.19320000  0.80680000  0.80010000  1.0 0.0803213466
H  H19  1  0.80680000  0.80680000  0.80010000  1.0 0.0803213466
H  H20  1  0.80680000  0.19320000  0.80010000  1.0 0.0803213466
H  H21  1  0.80680000  0.19320000  0.19990000  1.0 0.0803213466
H  H22  1  0.19320000  0.80680000  0.19990000  1.0 0.0803213466
H  H23  1  0.19320000  0.19320000  0.19990000  1.0 0.0803213466
H  H24  1  0.80680000  0.80680000  0.19990000  1.0 0.0803213466
H  H25  1  0.30010000  0.30010000  0.25260000  1.0 0.1018511916
H  H26  1  0.30010000  0.69990000  0.25260000  1.0 0.1018511916
H  H27  1  0.69990000  0.69990000  0.25260000  1.0 0.1018511916
H  H28  1  0.69990000  0.30010000  0.25260000  1.0 0.1018511916
H  H29  1  0.69990000  0.30010000  0.74740000  1.0 0.1018511916
H  H30  1  0.30010000  0.69990000  0.74740000  1.0 0.1018511916
H  H31  1  0.30010000  0.30010000  0.74740000  1.0 0.1018511916
H  H32  1  0.69990000  0.69990000  0.74740000  1.0 0.1018511916
H  H33  1  0.40370000  0.40370000  0.23400000  1.0 0.1018511916
H  H34  1  0.40370000  0.59630000  0.23400000  1.0 0.1018511916
H  H35  1  0.59630000  0.59630000  0.23400000  1.0 0.1018511916
H  H36  1  0.59630000  0.40370000  0.23400000  1.0 0.1018511916
H  H37  1  0.59630000  0.40370000  0.76600000  1.0 0.1018511916
H  H38  1  0.40370000  0.59630000  0.76600000  1.0 0.1018511916
H  H39  1  0.40370000  0.40370000  0.76600000  1.0 0.1018511916
H  H40  1  0.59630000  0.59630000  0.76600000  1.0 0.1018511916
H  H41  1  0.20090000  0.20090000  0.12540000  1.0 0.0803213466
H  H42  1  0.20090000  0.79910000  0.12540000  1.0 0.0803213466
H  H43  1  0.79910000  0.79910000  0.12540000  1.0 0.0803213466
H  H44  1  0.79910000  0.20090000  0.12540000  1.0 0.0803213466
H  H45  1  0.79910000  0.20090000  0.87460000  1.0 0.0803213466
H  H46  1  0.20090000  0.79910000  0.87460000  1.0 0.0803213466
H  H47  1  0.20090000  0.20090000  0.87460000  1.0 0.0803213466
H  H48  1  0.79910000  0.79910000  0.87460000  1.0 0.0803213466
C  C1  1  0.31380000  0.31380000  0.86900000  1.0 -0.1405234931
C  C2  1  0.31380000  0.68620000  0.86900000  1.0 -0.1405234931
C  C3  1  0.68620000  0.68620000  0.86900000  1.0 -0.1405234931
C  C4  1  0.68620000  0.31380000  0.86900000  1.0 -0.1405234931
C  C5  1  0.68620000  0.31380000  0.13100000  1.0 -0.1405234931
C  C6  1  0.31380000  0.68620000  0.13100000  1.0 -0.1405234931
C  C7  1  0.31380000  0.31380000  0.13100000  1.0 -0.1405234931
C  C8  1  0.68620000  0.68620000  0.13100000  1.0 -0.1405234931
C  C9  1  0.37630000  0.37630000  0.86640000  1.0 -0.1611816015
C  C10  1  0.37630000  0.62370000  0.86640000  1.0 -0.1611816015
C  C11  1  0.62370000  0.62370000  0.86640000  1.0 -0.1611816015
C  C12  1  0.62370000  0.37630000  0.86640000  1.0 -0.1611816015
C  C13  1  0.62370000  0.37630000  0.13360000  1.0 -0.1611816015
C  C14  1  0.37630000  0.62370000  0.13360000  1.0 -0.1611816015
C  C15  1  0.37630000  0.37630000  0.13360000  1.0 -0.1611816015
C  C16  1  0.62370000  0.62370000  0.13360000  1.0 -0.1611816015
C  C17  1  0.11240000  0.11240000  0.93370000  1.0 0.0395508141
C  C18  1  0.11240000  0.88760000  0.93370000  1.0 0.0395508141
C  C19  1  0.88760000  0.88760000  0.93370000  1.0 0.0395508141
C  C20  1  0.88760000  0.11240000  0.93370000  1.0 0.0395508141
C  C21  1  0.88760000  0.11240000  0.06630000  1.0 0.0395508141
C  C22  1  0.11240000  0.88760000  0.06630000  1.0 0.0395508141
C  C23  1  0.11240000  0.11240000  0.06630000  1.0 0.0395508141
C  C24  1  0.88760000  0.88760000  0.06630000  1.0 0.0395508141
C  C25  1  0.17900000  0.17900000  0.90500000  1.0 -0.0887120671
C  C26  1  0.17900000  0.82100000  0.90500000  1.0 -0.0887120671
C  C27  1  0.82100000  0.82100000  0.90500000  1.0 -0.0887120671
C  C28  1  0.82100000  0.17900000  0.90500000  1.0 -0.0887120671
C  C29  1  0.82100000  0.17900000  0.09500000  1.0 -0.0887120671
C  C30  1  0.17900000  0.82100000  0.09500000  1.0 -0.0887120671
C  C31  1  0.17900000  0.17900000  0.09500000  1.0 -0.0887120671
C  C32  1  0.82100000  0.82100000  0.09500000  1.0 -0.0887120671
C  C33  1  0.31850000  0.31850000  0.15300000  1.0 -0.1405234931
C  C34  1  0.31850000  0.68150000  0.15300000  1.0 -0.1405234931
C  C35  1  0.68150000  0.68150000  0.15300000  1.0 -0.1405234931
C  C36  1  0.68150000  0.31850000  0.15300000  1.0 -0.1405234931
C  C37  1  0.68150000  0.31850000  0.84700000  1.0 -0.1405234931
C  C38  1  0.31850000  0.68150000  0.84700000  1.0 -0.1405234931
C  C39  1  0.31850000  0.31850000  0.84700000  1.0 -0.1405234931
C  C40  1  0.68150000  0.68150000  0.84700000  1.0 -0.1405234931
C  C41  1  0.38080000  0.38080000  0.14060000  1.0 -0.1904028419
C  C42  1  0.38080000  0.61920000  0.14060000  1.0 -0.1904028419
C  C43  1  0.61920000  0.61920000  0.14060000  1.0 -0.1904028419
C  C44  1  0.61920000  0.38080000  0.14060000  1.0 -0.1904028419
C  C45  1  0.61920000  0.38080000  0.85940000  1.0 -0.1904028419
C  C46  1  0.38080000  0.61920000  0.85940000  1.0 -0.1904028419
C  C47  1  0.38080000  0.38080000  0.85940000  1.0 -0.1904028419
C  C48  1  0.61920000  0.61920000  0.85940000  1.0 -0.1904028419
C  C49  1  0.28370000  0.28370000  0.01400000  1.0 0.0728438675
C  C50  1  0.28370000  0.71630000  0.01400000  1.0 0.0728438675
C  C51  1  0.71630000  0.71630000  0.01400000  1.0 0.0728438675
C  C52  1  0.71630000  0.28370000  0.01400000  1.0 0.0728438675
C  C53  1  0.71630000  0.28370000  0.98600000  1.0 0.0728438675
C  C54  1  0.28370000  0.71630000  0.98600000  1.0 0.0728438675
C  C55  1  0.28370000  0.28370000  0.98600000  1.0 0.0728438675
C  C56  1  0.71630000  0.71630000  0.98600000  1.0 0.0728438675
C  C57  1  0.21740000  0.21740000  0.02300000  1.0 -0.0887120671
C  C58  1  0.21740000  0.78260000  0.02300000  1.0 -0.0887120671
C  C59  1  0.78260000  0.78260000  0.02300000  1.0 -0.0887120671
C  C60  1  0.78260000  0.21740000  0.02300000  1.0 -0.0887120671
C  C61  1  0.78260000  0.21740000  0.97700000  1.0 -0.0887120671
C  C62  1  0.21740000  0.78260000  0.97700000  1.0 -0.0887120671
C  C63  1  0.21740000  0.21740000  0.97700000  1.0 -0.0887120671
C  C64  1  0.78260000  0.78260000  0.97700000  1.0 -0.0887120671
N  N1  1  0.40910000  0.40910000  0.00000000  1.0 -0.0454162776
N  N2  1  0.40910000  0.59090000  0.00000000  1.0 -0.0454162776
N  N3  1  0.59090000  0.59090000  0.00000000  1.0 -0.0454162776
N  N4  1  0.59090000  0.40910000  0.00000000  1.0 -0.0454162776
O  O1  1  0.07810000  0.07810000  0.81410000  1.0 -0.1405234931
O  O2  1  0.07810000  0.92190000  0.81410000  1.0 -0.1405234931
O  O3  1  0.92190000  0.92190000  0.81410000  1.0 -0.1405234931
O  O4  1  0.92190000  0.07810000  0.81410000  1.0 -0.1405234931
O  O5  1  0.92190000  0.07810000  0.18590000  1.0 -0.1405234931
O  O6  1  0.07810000  0.92190000  0.18590000  1.0 -0.1405234931
O  O7  1  0.07810000  0.07810000  0.18590000  1.0 -0.1405234931
O  O8  1  0.92190000  0.92190000  0.18590000  1.0 -0.1405234931
O  O9  1  0.09330000  0.09330000  0.07660000  1.0 -0.0096798082
O  O10  1  0.09330000  0.90670000  0.07660000  1.0 -0.0096798082
O  O11  1  0.90670000  0.90670000  0.07660000  1.0 -0.0096798082
O  O12  1  0.90670000  0.09330000  0.07660000  1.0 -0.0096798082
O  O13  1  0.90670000  0.09330000  0.92340000  1.0 -0.0096798082
O  O14  1  0.09330000  0.90670000  0.92340000  1.0 -0.0096798082
O  O15  1  0.09330000  0.09330000  0.92340000  1.0 -0.0096798082
O  O16  1  0.90670000  0.90670000  0.92340000  1.0 -0.0096798082
O  O17  1  0.00000000  0.08100000  0.39800000  1.0 0.0132078798
O  O18  1  0.08100000  0.00000000  0.39800000  1.0 0.0132078798
O  O19  1  0.00000000  0.91900000  0.39800000  1.0 0.0132078798
O  O20  1  0.91900000  0.00000000  0.39800000  1.0 0.0132078798
O  O21  1  0.00000000  0.08100000  0.60200000  1.0 0.0132078798
O  O22  1  0.00000000  0.91900000  0.60200000  1.0 0.0132078798
O  O23  1  0.08100000  0.00000000  0.60200000  1.0 0.0132078798
O  O24  1  0.91900000  0.00000000  0.60200000  1.0 0.0132078798
