# DDEC6 charges by PACMAN v1.1 (https://github.com/mtap-research/PACMAN-charge/)
data_ZALGOL_FSR_pacman
_symmetry_space_group_name_H-M   'P 1'
_cell_length_a   12.98000000
_cell_length_b   14.38100000
_cell_length_c   14.50600000
_cell_angle_alpha   104.50000000
_cell_angle_beta   108.88000000
_cell_angle_gamma   108.14000000
_symmetry_Int_Tables_number   1
_chemical_formula_structural   NaTbAlMo6H8C8NO34
_chemical_formula_sum   'Na2 Tb2 Al2 Mo12 H16 C16 N2 O68'
_cell_volume   2241.43546538
_cell_formula_units_Z   2
loop_
 _symmetry_equiv_pos_site_id
 _symmetry_equiv_pos_as_xyz
  1  'x, y, z'
loop_
 _atom_site_type_symbol
 _atom_site_label
 _atom_site_symmetry_multiplicity
 _atom_site_fract_x
 _atom_site_fract_y
 _atom_site_fract_z
 _atom_site_occupancy
 _atom_site_charge
Na  Na1  1  0.45500000  0.05730000  0.09380000  1.0 0.9727577479
Na  Na2  1  0.54500000  0.94270000  0.90620000  1.0 0.9727577479
Tb  Tb1  1  0.50486000  0.10433000  0.43408000  1.0 2.1182234795
Tb  Tb2  1  0.49514000  0.89567000  0.56592000  1.0 2.1182234795
Al  Al1  1  0.50000000  0.50000000  0.00000000  1.0 1.5387231619
Al  Al2  1  0.00000000  0.50000000  0.50000000  1.0 1.6583480151
Mo  Mo1  1  0.10296000  0.47927000  0.31903000  1.0 1.9824104221
Mo  Mo2  1  0.85971000  0.28766000  0.53452000  1.0 2.150770119
Mo  Mo3  1  0.95905000  0.26512000  0.35234000  1.0 2.0990337642
Mo  Mo4  1  0.63921000  0.59295000  0.25808000  1.0 2.0619576485
Mo  Mo5  1  0.60750000  0.35866000  0.11450000  1.0 1.8501995118
Mo  Mo6  1  0.53470000  0.73290000  0.14370000  1.0 2.0773940595
Mo  Mo7  1  0.89704000  0.52073000  0.68097000  1.0 1.9824104221
Mo  Mo8  1  0.14029000  0.71234000  0.46548000  1.0 2.150770119
Mo  Mo9  1  0.04095000  0.73488000  0.64766000  1.0 2.0990337642
Mo  Mo10  1  0.36079000  0.40705000  0.74192000  1.0 2.0696816952
Mo  Mo11  1  0.39250000  0.64134000  0.88550000  1.0 1.8702929528
Mo  Mo12  1  0.46530000  0.26710000  0.85630000  1.0 2.0773940595
H  H1  1  0.19800000  0.13530000  0.49580000  1.0 0.151571414
H  H2  1  0.17570000  0.76060000  0.25480000  1.0 0.1826969893
H  H3  1  0.27740000  0.72090000  0.27660000  1.0 0.2010801048
H  H4  1  0.23190000  0.74440000  0.17460000  1.0 0.1902014823
H  H5  1  0.06440000  0.16680000  0.54790000  1.0 0.3230245919
H  H6  1  0.10400000  0.01410000  0.73660000  1.0 0.1623868605
H  H7  1  0.02150000  0.11990000  0.67350000  1.0 0.151571414
H  H8  1  0.24550000  0.98140000  0.68750000  1.0 0.1651048125
H  H9  1  0.80200000  0.86470000  0.50420000  1.0 0.151571414
H  H10  1  0.82430000  0.23940000  0.74520000  1.0 0.1826969893
H  H11  1  0.72260000  0.27910000  0.72340000  1.0 0.2010801048
H  H12  1  0.76810000  0.25560000  0.82540000  1.0 0.1902014823
H  H13  1  0.93560000  0.83320000  0.45210000  1.0 0.3230245919
H  H14  1  0.89600000  0.98590000  0.26340000  1.0 0.1623868605
H  H15  1  0.97850000  0.88010000  0.32650000  1.0 0.151571414
H  H16  1  0.75450000  0.01860000  0.31250000  1.0 0.1623868605
C  C1  1  0.17990000  0.11080000  0.54470000  1.0 0.0983480891
C  C2  1  0.24800000  0.76600000  0.24800000  1.0 -0.498970875
C  C3  1  0.23400000  0.05400000  0.58380000  1.0 -0.053076887
C  C4  1  0.34300000  0.88060000  0.30840000  1.0 0.7832389386
C  C5  1  0.32480000  0.03180000  0.55140000  1.0 0.6473908336
C  C6  1  0.12500000  0.04030000  0.68960000  1.0 -0.1109926565
C  C7  1  0.07300000  0.10070000  0.65000000  1.0 0.113910182
C  C8  1  0.20700000  0.01920000  0.65860000  1.0 0.0363139049
C  C9  1  0.82010000  0.88920000  0.45530000  1.0 0.0983480891
C  C10  1  0.75200000  0.23400000  0.75200000  1.0 -0.498970875
C  C11  1  0.76600000  0.94600000  0.41620000  1.0 -0.053076887
C  C12  1  0.65700000  0.11940000  0.69160000  1.0 0.7832389386
C  C13  1  0.67520000  0.96820000  0.44860000  1.0 0.6473908336
C  C14  1  0.87500000  0.95970000  0.31040000  1.0 -0.1109926565
C  C15  1  0.92700000  0.89930000  0.35000000  1.0 0.113910182
C  C16  1  0.79300000  0.98080000  0.34140000  1.0 0.0363139049
N  N1  1  0.09990000  0.13230000  0.57560000  1.0 -0.1415799981
N  N2  1  0.90010000  0.86770000  0.42440000  1.0 -0.1415799981
O  O1  1  0.25050000  0.53940000  0.33740000  1.0 -0.4916337966
O  O2  1  0.71220000  0.23990000  0.51810000  1.0 -0.694780895
O  O3  1  0.91500000  0.20280000  0.57200000  1.0 -0.5860668509
O  O4  1  0.05840000  0.58300000  0.64540000  1.0 -0.8288163929
O  O5  1  0.87830000  0.19490000  0.21930000  1.0 -0.4703961177
O  O6  1  0.01910000  0.18920000  0.40380000  1.0 -0.612670192
O  O7  1  0.67220000  0.71380000  0.22550000  1.0 -0.7523846913
O  O8  1  0.78510000  0.61960000  0.33770000  1.0 -0.479132296
O  O9  1  0.02490000  0.38350000  0.52210000  1.0 -0.8212679415
O  O10  1  0.47150000  0.55970000  0.11530000  1.0 -0.8962032585
O  O11  1  0.93700000  0.40000000  0.66950000  1.0 -0.7229954241
O  O12  1  0.85290000  0.43670000  0.50850000  1.0 -0.8611176698
O  O13  1  0.82340000  0.23850000  0.38690000  1.0 -0.7087200372
O  O14  1  0.64790000  0.51990000  0.10500000  1.0 -0.8783320873
O  O15  1  0.02020000  0.41300000  0.18620000  1.0 -0.479132296
O  O16  1  0.35000000  0.07330000  0.48980000  1.0 -0.6019989936
O  O17  1  0.35570000  0.94990000  0.26990000  1.0 -0.5692409365
O  O18  1  0.40790000  0.90920000  0.40630000  1.0 -0.7028931467
O  O19  1  0.36170000  0.15660000  0.33120000  1.0 -0.2337906002
O  O20  1  0.44570000  0.36120000  0.99750000  1.0 -0.9116708128
O  O21  1  0.57700000  0.61930000  0.34300000  1.0 -0.4916337966
O  O22  1  0.53210000  0.27430000  0.54880000  1.0 0.0632184469
O  O23  1  0.56560000  0.43610000  0.21020000  1.0 -0.7523846913
O  O24  1  0.56510000  0.15330000  0.29880000  1.0 -0.3335789679
O  O25  1  0.36810000  0.97660000  0.58960000  1.0 -0.5692409365
O  O26  1  0.10870000  0.36340000  0.36000000  1.0 -0.7903588502
O  O27  1  0.75600000  0.39670000  0.19870000  1.0 -0.3869232921
O  O28  1  0.53500000  0.23700000  0.10800000  1.0 -0.5462380139
O  O29  1  0.38400000  0.67990000  0.01790000  1.0 -0.7229954241
O  O30  1  0.48100000  0.76100000  0.24000000  1.0 -0.5553129701
O  O31  1  0.62800000  0.02780000  0.09900000  1.0 -0.4703961177
O  O32  1  0.30200000  0.11100000  0.11400000  1.0 -0.1415799981
O  O33  1  0.33500000  0.88100000  0.07200000  1.0 0.0983480891
O  O34  1  0.60300000  0.84700000  0.13900000  1.0 -0.4251239686
O  O35  1  0.74950000  0.46060000  0.66260000  1.0 -0.4916337966
O  O36  1  0.28780000  0.76010000  0.48190000  1.0 -0.694780895
O  O37  1  0.08500000  0.79720000  0.42800000  1.0 -0.5860668509
O  O38  1  0.94160000  0.41700000  0.35460000  1.0 -0.8288163929
O  O39  1  0.12170000  0.80510000  0.78070000  1.0 -0.4703961177
O  O40  1  0.98090000  0.81080000  0.59620000  1.0 -0.612670192
O  O41  1  0.32780000  0.28620000  0.77450000  1.0 -0.7523846913
O  O42  1  0.21490000  0.38040000  0.66230000  1.0 -0.479132296
O  O43  1  0.97510000  0.61650000  0.47790000  1.0 -0.8212679415
O  O44  1  0.52850000  0.44030000  0.88470000  1.0 -0.8962032585
O  O45  1  0.06300000  0.60000000  0.33050000  1.0 -0.7229954241
O  O46  1  0.14710000  0.56330000  0.49150000  1.0 -0.8611176698
O  O47  1  0.17660000  0.76150000  0.61310000  1.0 -0.7087200372
O  O48  1  0.35210000  0.48010000  0.89500000  1.0 -0.8700779765
O  O49  1  0.97980000  0.58700000  0.81380000  1.0 -0.479132296
O  O50  1  0.65000000  0.92670000  0.51020000  1.0 -0.6019989936
O  O51  1  0.64430000  0.05010000  0.73010000  1.0 -0.5692409365
O  O52  1  0.59210000  0.09080000  0.59370000  1.0 -0.7028931467
O  O53  1  0.63830000  0.84340000  0.66880000  1.0 -0.2355940132
O  O54  1  0.55430000  0.63880000  0.00250000  1.0 -0.9116708128
O  O55  1  0.42300000  0.38070000  0.65700000  1.0 -0.4916337966
O  O56  1  0.46790000  0.72570000  0.45120000  1.0 0.0632184469
O  O57  1  0.43440000  0.56390000  0.78980000  1.0 -0.7560481517
O  O58  1  0.43490000  0.84670000  0.70120000  1.0 -0.3335789679
O  O59  1  0.63190000  0.02340000  0.41040000  1.0 -0.5692409365
O  O60  1  0.89130000  0.63660000  0.64000000  1.0 -0.7903588502
O  O61  1  0.24400000  0.60330000  0.80130000  1.0 -0.3869232921
O  O62  1  0.46500000  0.76300000  0.89200000  1.0 -0.5462380139
O  O63  1  0.61600000  0.32010000  0.98210000  1.0 -0.7229954241
O  O64  1  0.51900000  0.23900000  0.76000000  1.0 -0.5553129701
O  O65  1  0.37200000  0.97220000  0.90100000  1.0 -0.4703961177
O  O66  1  0.69800000  0.88900000  0.88600000  1.0 -0.1415799981
O  O67  1  0.66500000  0.11900000  0.92800000  1.0 0.0983480891
O  O68  1  0.39700000  0.15300000  0.86100000  1.0 -0.4251239686
