# DDEC6 charges by PACMAN v1.1 (https://github.com/mtap-research/PACMAN-charge/)
data_ZARLIP_ASR_pacman
_symmetry_space_group_name_H-M   'P 1'
_cell_length_a   22.38790000
_cell_length_b   22.38790000
_cell_length_c   20.25870000
_cell_angle_alpha   71.35800000
_cell_angle_beta   108.64200000
_cell_angle_gamma   68.30040000
_symmetry_Int_Tables_number   1
_chemical_formula_structural   Zn5H45C99O20
_chemical_formula_sum   'Zn10 H90 C198 O40'
_cell_volume   7755.54723758
_cell_formula_units_Z   2
loop_
 _symmetry_equiv_pos_site_id
 _symmetry_equiv_pos_as_xyz
  1  'x, y, z'
loop_
 _atom_site_type_symbol
 _atom_site_label
 _atom_site_symmetry_multiplicity
 _atom_site_fract_x
 _atom_site_fract_y
 _atom_site_fract_z
 _atom_site_occupancy
 _atom_site_charge
Zn  Zn1  1  0.61675000  0.81533000  0.24067000  1.0 1.0099492717
Zn  Zn2  1  0.81533000  0.61675000  0.25933000  1.0 1.0099492717
Zn  Zn3  1  0.67858000  0.68294000  0.41548000  1.0 0.9524088053
Zn  Zn4  1  0.68294000  0.67858000  0.08452000  1.0 0.9524088053
Zn  Zn5  1  0.65163000  0.65163000  0.25000000  1.0 1.0099492717
Zn  Zn6  1  0.38325000  0.18467000  0.75933000  1.0 1.0099492717
Zn  Zn7  1  0.18467000  0.38325000  0.74067000  1.0 1.0099492717
Zn  Zn8  1  0.32142000  0.31706000  0.58452000  1.0 0.9524088053
Zn  Zn9  1  0.31706000  0.32142000  0.91548000  1.0 0.9524088053
Zn  Zn10  1  0.34837000  0.34837000  0.75000000  1.0 1.0099492717
H  H1  1  0.90900000  0.71320000  0.32240000  1.0 0.1204561845
H  H2  1  0.71320000  0.90900000  0.17760000  1.0 0.1204561845
H  H3  1  0.09160000  0.90080000  0.29530000  1.0 0.1204561845
H  H4  1  0.90080000  0.09160000  0.20470000  1.0 0.1204561845
H  H5  1  0.04410000  0.89990000  0.97420000  1.0 0.1303292245
H  H6  1  0.89990000  0.04410000  0.52580000  1.0 0.1303292245
H  H7  1  0.97190000  0.77630000  0.32120000  1.0 0.1204561845
H  H8  1  0.77630000  0.97190000  0.17880000  1.0 0.1204561845
H  H9  1  0.84650000  0.09470000  0.84530000  1.0 0.1303292245
H  H10  1  0.09470000  0.84650000  0.65470000  1.0 0.1303292245
H  H11  1  0.03500000  0.09320000  0.87460000  1.0 0.1204561845
H  H12  1  0.09320000  0.03500000  0.62540000  1.0 0.1204561845
H  H13  1  0.09110000  0.09110000  0.25000000  1.0 0.1408419322
H  H14  1  0.90120000  0.73900000  0.16250000  1.0 0.1204561845
H  H15  1  0.73900000  0.90120000  0.33750000  1.0 0.1204561845
H  H16  1  0.73120000  0.82420000  0.94330000  1.0 0.1303292245
H  H17  1  0.82420000  0.73120000  0.55670000  1.0 0.1303292245
H  H18  1  0.28000000  0.97880000  0.98380000  1.0 0.1303292245
H  H19  1  0.97880000  0.28000000  0.51620000  1.0 0.1303292245
H  H20  1  0.93930000  0.81490000  0.10570000  1.0 0.1204561845
H  H21  1  0.81490000  0.93930000  0.39430000  1.0 0.1204561845
H  H22  1  0.40770000  0.91910000  0.04690000  1.0 0.1303292245
H  H23  1  0.91910000  0.40770000  0.45310000  1.0 0.1303292245
H  H24  1  0.27650000  0.95650000  0.19020000  1.0 0.1140120042
H  H25  1  0.95650000  0.27650000  0.30980000  1.0 0.1140120042
H  H26  1  0.80670000  0.44370000  0.54040000  1.0 0.1204561845
H  H27  1  0.44370000  0.80670000  0.95960000  1.0 0.1204561845
H  H28  1  0.76870000  0.90110000  0.88690000  1.0 0.1303292245
H  H29  1  0.90110000  0.76870000  0.61310000  1.0 0.1303292245
H  H30  1  0.39390000  0.90890000  0.20210000  1.0 0.1204561845
H  H31  1  0.90890000  0.39390000  0.29790000  1.0 0.1204561845
H  H32  1  0.48490000  0.76650000  0.43560000  1.0 0.1408419322
H  H33  1  0.76650000  0.48490000  0.06440000  1.0 0.1408419322
H  H34  1  0.42500000  0.72440000  0.14700000  1.0 0.1303292245
H  H35  1  0.72440000  0.42500000  0.35300000  1.0 0.1303292245
H  H36  1  0.86210000  0.31690000  0.62570000  1.0 0.1204561845
H  H37  1  0.31690000  0.86210000  0.87430000  1.0 0.1204561845
H  H38  1  0.37000000  0.81760000  0.42700000  1.0 0.1204561845
H  H39  1  0.81760000  0.37000000  0.07300000  1.0 0.1204561845
H  H40  1  0.73870000  0.49030000  0.68710000  1.0 0.1303292245
H  H41  1  0.49030000  0.73870000  0.81290000  1.0 0.1303292245
H  H42  1  0.79320000  0.36420000  0.77380000  1.0 0.1204561845
H  H43  1  0.36420000  0.79320000  0.72620000  1.0 0.1204561845
H  H44  1  0.29820000  0.78140000  0.07550000  1.0 0.1303292245
H  H45  1  0.78140000  0.29820000  0.42450000  1.0 0.1303292245
H  H46  1  0.09100000  0.28680000  0.67760000  1.0 0.1204561845
H  H47  1  0.28680000  0.09100000  0.82240000  1.0 0.1204561845
H  H48  1  0.90840000  0.09920000  0.70470000  1.0 0.1204561845
H  H49  1  0.09920000  0.90840000  0.79530000  1.0 0.1204561845
H  H50  1  0.95590000  0.10010000  0.02580000  1.0 0.1303292245
H  H51  1  0.10010000  0.95590000  0.47420000  1.0 0.1303292245
H  H52  1  0.02810000  0.22370000  0.67880000  1.0 0.1204561845
H  H53  1  0.22370000  0.02810000  0.82120000  1.0 0.1204561845
H  H54  1  0.15350000  0.90530000  0.15470000  1.0 0.1303292245
H  H55  1  0.90530000  0.15350000  0.34530000  1.0 0.1303292245
H  H56  1  0.96500000  0.90680000  0.12540000  1.0 0.1204561845
H  H57  1  0.90680000  0.96500000  0.37460000  1.0 0.1204561845
H  H58  1  0.90890000  0.90890000  0.75000000  1.0 0.1408419322
H  H59  1  0.09880000  0.26100000  0.83750000  1.0 0.1204561845
H  H60  1  0.26100000  0.09880000  0.66250000  1.0 0.1204561845
H  H61  1  0.26880000  0.17580000  0.05670000  1.0 0.1303292245
H  H62  1  0.17580000  0.26880000  0.44330000  1.0 0.1303292245
H  H63  1  0.72000000  0.02120000  0.01620000  1.0 0.1303292245
H  H64  1  0.02120000  0.72000000  0.48380000  1.0 0.1303292245
H  H65  1  0.06070000  0.18510000  0.89430000  1.0 0.1204561845
H  H66  1  0.18510000  0.06070000  0.60570000  1.0 0.1204561845
H  H67  1  0.59230000  0.08090000  0.95310000  1.0 0.1303292245
H  H68  1  0.08090000  0.59230000  0.54690000  1.0 0.1303292245
H  H69  1  0.72350000  0.04350000  0.80980000  1.0 0.1140120042
H  H70  1  0.04350000  0.72350000  0.69020000  1.0 0.1140120042
H  H71  1  0.19330000  0.55630000  0.45960000  1.0 0.1204561845
H  H72  1  0.55630000  0.19330000  0.04040000  1.0 0.1204561845
H  H73  1  0.23130000  0.09890000  0.11310000  1.0 0.1303292245
H  H74  1  0.09890000  0.23130000  0.38690000  1.0 0.1303292245
H  H75  1  0.60610000  0.09110000  0.79790000  1.0 0.1204561845
H  H76  1  0.09110000  0.60610000  0.70210000  1.0 0.1204561845
H  H77  1  0.51510000  0.23350000  0.56440000  1.0 0.1408419322
H  H78  1  0.23350000  0.51510000  0.93560000  1.0 0.1408419322
H  H79  1  0.57500000  0.27560000  0.85300000  1.0 0.1303292245
H  H80  1  0.27560000  0.57500000  0.64700000  1.0 0.1303292245
H  H81  1  0.13790000  0.68310000  0.37430000  1.0 0.1204561845
H  H82  1  0.68310000  0.13790000  0.12570000  1.0 0.1140120042
H  H83  1  0.63000000  0.18240000  0.57300000  1.0 0.1204561845
H  H84  1  0.18240000  0.63000000  0.92700000  1.0 0.1303292245
H  H85  1  0.26130000  0.50970000  0.31290000  1.0 0.1303292245
H  H86  1  0.50970000  0.26130000  0.18710000  1.0 0.1303292245
H  H87  1  0.20680000  0.63580000  0.22620000  1.0 0.1204561845
H  H88  1  0.63580000  0.20680000  0.27380000  1.0 0.1204561845
H  H89  1  0.70180000  0.21860000  0.92450000  1.0 0.1303292245
H  H90  1  0.21860000  0.70180000  0.57550000  1.0 0.1303292245
C  C1  1  0.91925000  0.91925000  0.25000000  1.0 -0.1185566053
C  C2  1  0.99033000  0.99033000  0.25000000  1.0 0.1467578335
C  C3  1  0.51194000  0.77694000  0.14864000  1.0 0.5915386951
C  C4  1  0.77694000  0.51194000  0.35136000  1.0 0.5915386951
C  C5  1  0.88194000  0.76582000  0.29277000  1.0 -0.0957344251
C  C6  1  0.76582000  0.88194000  0.20723000  1.0 -0.0957344251
C  C7  1  0.06539000  0.95269000  0.27593000  1.0 -0.1725369396
C  C8  1  0.95269000  0.06539000  0.22407000  1.0 -0.1725369396
C  C9  1  0.01611000  0.95255000  0.94390000  1.0 -0.1598866982
C  C10  1  0.95255000  0.01611000  0.55610000  1.0 -0.1598866982
C  C11  1  0.80504000  0.80504000  0.25000000  1.0 -0.0183625226
C  C12  1  0.90524000  0.95088000  0.93299000  1.0 -0.0891211251
C  C13  1  0.95088000  0.90524000  0.56701000  1.0 -0.0891211251
C  C14  1  0.81130000  0.77494000  0.05805000  1.0 -0.0183625226
C  C15  1  0.77494000  0.81130000  0.44195000  1.0 -0.0183625226
C  C16  1  0.95139000  0.95139000  0.25000000  1.0 -0.0891211251
C  C17  1  0.05187000  0.99067000  0.93001000  1.0 0.1408419322
C  C18  1  0.99067000  0.05187000  0.56999000  1.0 0.1408419322
C  C19  1  0.10304000  0.99106000  0.27365000  1.0 0.1303292245
C  C20  1  0.99106000  0.10304000  0.22635000  1.0 0.1303292245
C  C21  1  0.91929000  0.80341000  0.29234000  1.0 -0.139410959
C  C22  1  0.80341000  0.91929000  0.20766000  1.0 -0.139410959
C  C23  1  0.89873000  0.06815000  0.86719000  1.0 -0.1806966307
C  C24  1  0.06815000  0.89873000  0.63281000  1.0 -0.1806966307
C  C25  1  0.13069000  0.95173000  0.96268000  1.0 -0.0806573949
C  C26  1  0.95173000  0.13069000  0.53732000  1.0 -0.0806573949
C  C27  1  0.01081000  0.06717000  0.88442000  1.0 -0.1806966307
C  C28  1  0.06717000  0.01081000  0.61558000  1.0 -0.1806966307
C  C29  1  0.17861000  0.95365000  0.29099000  1.0 -0.0806573949
C  C30  1  0.95365000  0.17861000  0.20901000  1.0 -0.0806573949
C  C31  1  0.52627000  0.80037000  0.32640000  1.0 0.5953906981
C  C32  1  0.80037000  0.52627000  0.17360000  1.0 0.5915386951
C  C33  1  0.42906000  0.81624000  0.10249000  1.0 -0.0183625226
C  C34  1  0.81624000  0.42906000  0.39751000  1.0 -0.0139501912
C  C35  1  0.06544000  0.06544000  0.25000000  1.0 -0.1806966307
C  C36  1  0.85628000  0.86748000  0.98941000  1.0 0.1467578335
C  C37  1  0.86748000  0.85628000  0.51059000  1.0 0.1467578335
C  C38  1  0.87391000  0.77221000  0.10630000  1.0 -0.0891211251
C  C39  1  0.77221000  0.87391000  0.39370000  1.0 -0.0891211251
C  C40  1  0.88030000  0.88030000  0.25000000  1.0 0.1408419322
C  C41  1  0.93452000  0.10624000  0.85283000  1.0 0.1204561845
C  C42  1  0.10624000  0.93452000  0.64717000  1.0 0.1204561845
C  C43  1  0.93993000  0.99069000  0.91387000  1.0 0.1408419322
C  C44  1  0.99069000  0.93993000  0.58613000  1.0 0.1408419322
C  C45  1  0.89403000  0.18561000  0.80227000  1.0 -0.0806573949
C  C46  1  0.18561000  0.89403000  0.69773000  1.0 -0.0806573949
C  C47  1  0.23949000  0.92545000  0.30070000  1.0 -0.1106934829
C  C48  1  0.92545000  0.23949000  0.19930000  1.0 -0.1106934829
C  C49  1  0.31197000  0.89323000  0.30770000  1.0 0.1408419322
C  C50  1  0.89323000  0.31197000  0.19230000  1.0 0.1467578335
C  C51  1  0.19603000  0.92253000  0.99070000  1.0 -0.1106934829
C  C52  1  0.92253000  0.19603000  0.50930000  1.0 -0.1106934829
C  C53  1  0.77336000  0.82258000  0.97690000  1.0 -0.0891211251
C  C54  1  0.82258000  0.77336000  0.52310000  1.0 -0.0891211251
C  C55  1  0.30909000  0.92643000  0.01700000  1.0 -0.139410959
C  C56  1  0.92643000  0.30909000  0.48300000  1.0 -0.1469591113
C  C57  1  0.89632000  0.81750000  0.07250000  1.0 -0.1469591113
C  C58  1  0.81750000  0.89632000  0.42750000  1.0 -0.1469591113
C  C59  1  0.38532000  0.89064000  0.05470000  1.0 -0.0891211251
C  C60  1  0.89064000  0.38532000  0.44530000  1.0 -0.0891211251
C  C61  1  0.31911000  0.91885000  0.24090000  1.0 -0.1598866982
C  C62  1  0.91885000  0.31911000  0.25910000  1.0 -0.1598866982
C  C63  1  0.45074000  0.83326000  0.31962000  1.0 -0.0139501912
C  C64  1  0.83326000  0.45074000  0.18038000  1.0 -0.0139501912
C  C65  1  0.88128000  0.91322000  0.95590000  1.0 -0.1185566053
C  C66  1  0.91322000  0.88128000  0.54410000  1.0 -0.1185566053
C  C67  1  0.27486000  0.88708000  0.02700000  1.0 0.1408419322
C  C68  1  0.88708000  0.27486000  0.47300000  1.0 0.1408419322
C  C69  1  0.80384000  0.42746000  0.58810000  1.0 -0.0891211251
C  C70  1  0.42746000  0.80384000  0.91190000  1.0 -0.0891211251
C  C71  1  0.76836000  0.47768000  0.60580000  1.0 0.0063442644
C  C72  1  0.47768000  0.76836000  0.89420000  1.0 0.0063442644
C  C73  1  0.79589000  0.86839000  0.94327000  1.0 -0.139410959
C  C74  1  0.86839000  0.79589000  0.55673000  1.0 -0.139410959
C  C75  1  0.83201000  0.32779000  0.70660000  1.0 0.1303292245
C  C76  1  0.32779000  0.83201000  0.79340000  1.0 0.1303292245
C  C77  1  0.38908000  0.88952000  0.24790000  1.0 -0.0891211251
C  C78  1  0.88952000  0.38908000  0.25210000  1.0 -0.0891211251
C  C79  1  0.44258000  0.80636000  0.38570000  1.0 -0.0806573949
C  C80  1  0.80636000  0.44258000  0.11430000  1.0 -0.0806573949
C  C81  1  0.39541000  0.77655000  0.11210000  1.0 -0.0957344251
C  C82  1  0.77655000  0.39541000  0.38790000  1.0 -0.0957344251
C  C83  1  0.83657000  0.35175000  0.63870000  1.0 -0.1598866982
C  C84  1  0.35175000  0.83657000  0.86130000  1.0 -0.1598866982
C  C85  1  0.37434000  0.83610000  0.38060000  1.0 -0.1316750284
C  C86  1  0.83610000  0.37434000  0.11940000  1.0 -0.1316750284
C  C87  1  0.86613000  0.24923000  0.75980000  1.0 -0.0891211251
C  C88  1  0.24923000  0.86613000  0.74020000  1.0 -0.0891211251
C  C89  1  0.76389000  0.45469000  0.67470000  1.0 -0.0806573949
C  C90  1  0.45469000  0.76389000  0.82530000  1.0 -0.0806573949
C  C91  1  0.79579000  0.37999000  0.72590000  1.0 -0.1316750284
C  C92  1  0.37999000  0.79579000  0.77410000  1.0 -0.1316750284
C  C93  1  0.32005000  0.81073000  0.07220000  1.0 -0.139410959
C  C94  1  0.81073000  0.32005000  0.42780000  1.0 -0.139410959
C  C95  1  0.76462000  0.76462000  0.25000000  1.0 0.5782761423
C  C96  1  0.78729000  0.72615000  0.09580000  1.0 0.5953906981
C  C97  1  0.72615000  0.78729000  0.40420000  1.0 0.5953906981
C  C98  1  0.73227000  0.56047000  0.54960000  1.0 0.5508043466
C  C99  1  0.56047000  0.73227000  0.95040000  1.0 0.5508043466
C  C100  1  0.08075000  0.08075000  0.75000000  1.0 -0.1185566053
C  C101  1  0.00967000  0.00967000  0.75000000  1.0 0.1467578335
C  C102  1  0.48806000  0.22306000  0.85136000  1.0 0.5915386951
C  C103  1  0.22306000  0.48806000  0.64864000  1.0 0.5915386951
C  C104  1  0.11806000  0.23418000  0.70723000  1.0 -0.0957344251
C  C105  1  0.23418000  0.11806000  0.79277000  1.0 -0.0957344251
C  C106  1  0.93461000  0.04731000  0.72407000  1.0 -0.1725369396
C  C107  1  0.04731000  0.93461000  0.77593000  1.0 -0.1725369396
C  C108  1  0.98389000  0.04745000  0.05610000  1.0 -0.1598866982
C  C109  1  0.04745000  0.98389000  0.44390000  1.0 -0.1598866982
C  C110  1  0.19496000  0.19496000  0.75000000  1.0 -0.0183625226
C  C111  1  0.09476000  0.04912000  0.06701000  1.0 -0.0891211251
C  C112  1  0.04912000  0.09476000  0.43299000  1.0 -0.0891211251
C  C113  1  0.18870000  0.22506000  0.94195000  1.0 -0.0183625226
C  C114  1  0.22506000  0.18870000  0.55805000  1.0 -0.0183625226
C  C115  1  0.04861000  0.04861000  0.75000000  1.0 -0.0891211251
C  C116  1  0.94813000  0.00933000  0.06999000  1.0 0.1408419322
C  C117  1  0.00933000  0.94813000  0.43001000  1.0 0.1408419322
C  C118  1  0.89696000  0.00894000  0.72635000  1.0 0.1303292245
C  C119  1  0.00894000  0.89696000  0.77365000  1.0 0.1303292245
C  C120  1  0.08071000  0.19659000  0.70766000  1.0 -0.139410959
C  C121  1  0.19659000  0.08071000  0.79234000  1.0 -0.139410959
C  C122  1  0.10127000  0.93185000  0.13281000  1.0 -0.1806966307
C  C123  1  0.93185000  0.10127000  0.36719000  1.0 -0.1806966307
C  C124  1  0.86931000  0.04827000  0.03732000  1.0 -0.0806573949
C  C125  1  0.04827000  0.86931000  0.46268000  1.0 -0.0806573949
C  C126  1  0.98919000  0.93283000  0.11558000  1.0 -0.1806966307
C  C127  1  0.93283000  0.98919000  0.38442000  1.0 -0.1806966307
C  C128  1  0.82139000  0.04635000  0.70901000  1.0 -0.0806573949
C  C129  1  0.04635000  0.82139000  0.79099000  1.0 -0.0806573949
C  C130  1  0.47373000  0.19963000  0.67360000  1.0 0.5953906981
C  C131  1  0.19963000  0.47373000  0.82640000  1.0 0.5915386951
C  C132  1  0.57094000  0.18376000  0.89751000  1.0 -0.0139501912
C  C133  1  0.18376000  0.57094000  0.60249000  1.0 -0.0183625226
C  C134  1  0.93456000  0.93456000  0.75000000  1.0 -0.1806966307
C  C135  1  0.14372000  0.13252000  0.01059000  1.0 0.1467578335
C  C136  1  0.13252000  0.14372000  0.48941000  1.0 0.1467578335
C  C137  1  0.12609000  0.22779000  0.89370000  1.0 -0.0891211251
C  C138  1  0.22779000  0.12609000  0.60630000  1.0 -0.0891211251
C  C139  1  0.11970000  0.11970000  0.75000000  1.0 0.1408419322
C  C140  1  0.06548000  0.89376000  0.14717000  1.0 0.1303292245
C  C141  1  0.89376000  0.06548000  0.35283000  1.0 0.1204561845
C  C142  1  0.06007000  0.00931000  0.08613000  1.0 0.1408419322
C  C143  1  0.00931000  0.06007000  0.41387000  1.0 0.1408419322
C  C144  1  0.10597000  0.81439000  0.19773000  1.0 -0.0806573949
C  C145  1  0.81439000  0.10597000  0.30227000  1.0 -0.0806573949
C  C146  1  0.76051000  0.07455000  0.69930000  1.0 -0.1106934829
C  C147  1  0.07455000  0.76051000  0.80070000  1.0 -0.1106934829
C  C148  1  0.68803000  0.10677000  0.69230000  1.0 0.1467578335
C  C149  1  0.10677000  0.68803000  0.80770000  1.0 0.1408419322
C  C150  1  0.80397000  0.07747000  0.00930000  1.0 -0.1106934829
C  C151  1  0.07747000  0.80397000  0.49070000  1.0 -0.1106934829
C  C152  1  0.22664000  0.17742000  0.02310000  1.0 -0.0891211251
C  C153  1  0.17742000  0.22664000  0.47690000  1.0 -0.0891211251
C  C154  1  0.69091000  0.07357000  0.98300000  1.0 -0.139410959
C  C155  1  0.07357000  0.69091000  0.51700000  1.0 -0.139410959
C  C156  1  0.10368000  0.18250000  0.92750000  1.0 -0.1469591113
C  C157  1  0.18250000  0.10368000  0.57250000  1.0 -0.1469591113
C  C158  1  0.61468000  0.10936000  0.94530000  1.0 -0.0891211251
C  C159  1  0.10936000  0.61468000  0.55470000  1.0 -0.0891211251
C  C160  1  0.68089000  0.08115000  0.75910000  1.0 -0.1598866982
C  C161  1  0.08115000  0.68089000  0.74090000  1.0 -0.1598866982
C  C162  1  0.54926000  0.16674000  0.68038000  1.0 -0.0139501912
C  C163  1  0.16674000  0.54926000  0.81962000  1.0 -0.0139501912
C  C164  1  0.11872000  0.08678000  0.04410000  1.0 -0.1185566053
C  C165  1  0.08678000  0.11872000  0.45590000  1.0 -0.1185566053
C  C166  1  0.72514000  0.11292000  0.97300000  1.0 0.1408419322
C  C167  1  0.11292000  0.72514000  0.52700000  1.0 0.1408419322
C  C168  1  0.19616000  0.57254000  0.41190000  1.0 -0.0891211251
C  C169  1  0.57254000  0.19616000  0.08810000  1.0 -0.0891211251
C  C170  1  0.23164000  0.52232000  0.39420000  1.0 0.0063442644
C  C171  1  0.52232000  0.23164000  0.10580000  1.0 0.0063442644
C  C172  1  0.20411000  0.13161000  0.05673000  1.0 -0.139410959
C  C173  1  0.13161000  0.20411000  0.44327000  1.0 -0.139410959
C  C174  1  0.16799000  0.67221000  0.29340000  1.0 0.1303292245
C  C175  1  0.67221000  0.16799000  0.20660000  1.0 0.1303292245
C  C176  1  0.61092000  0.11048000  0.75210000  1.0 -0.0891211251
C  C177  1  0.11048000  0.61092000  0.74790000  1.0 -0.0891211251
C  C178  1  0.55742000  0.19364000  0.61430000  1.0 -0.0806573949
C  C179  1  0.19364000  0.55742000  0.88570000  1.0 -0.0806573949
C  C180  1  0.60459000  0.22345000  0.88790000  1.0 -0.0957344251
C  C181  1  0.22345000  0.60459000  0.61210000  1.0 -0.0957344251
C  C182  1  0.16343000  0.64825000  0.36130000  1.0 -0.1598866982
C  C183  1  0.64825000  0.16343000  0.13870000  1.0 -0.1598866982
C  C184  1  0.62566000  0.16390000  0.61940000  1.0 -0.1316750284
C  C185  1  0.16390000  0.62566000  0.88060000  1.0 -0.1316750284
C  C186  1  0.13387000  0.75077000  0.24020000  1.0 -0.0891211251
C  C187  1  0.75077000  0.13387000  0.25980000  1.0 -0.0891211251
C  C188  1  0.23611000  0.54531000  0.32530000  1.0 -0.0806573949
C  C189  1  0.54531000  0.23611000  0.17470000  1.0 -0.0806573949
C  C190  1  0.20421000  0.62001000  0.27410000  1.0 -0.1316750284
C  C191  1  0.62001000  0.20421000  0.22590000  1.0 -0.1316750284
C  C192  1  0.67995000  0.18927000  0.92780000  1.0 -0.1316750284
C  C193  1  0.18927000  0.67995000  0.57220000  1.0 -0.139410959
C  C194  1  0.23538000  0.23538000  0.75000000  1.0 0.5782761423
C  C195  1  0.21271000  0.27385000  0.90420000  1.0 0.5953906981
C  C196  1  0.27385000  0.21271000  0.59580000  1.0 0.5915386951
C  C197  1  0.26773000  0.43953000  0.45040000  1.0 0.5508043466
C  C198  1  0.43953000  0.26773000  0.04960000  1.0 0.5508043466
O  O1  1  0.69638000  0.80098000  0.19872000  1.0 -0.4857389661
O  O2  1  0.80098000  0.69638000  0.30128000  1.0 -0.4857389661
O  O3  1  0.67794000  0.70098000  0.31322000  1.0 -0.8257965298
O  O4  1  0.70098000  0.67794000  0.18678000  1.0 -0.8257965298
O  O5  1  0.82507000  0.68371000  0.16937000  1.0 -0.5333232435
O  O6  1  0.68371000  0.82507000  0.33063000  1.0 -0.5352971705
O  O7  1  0.53297000  0.83399000  0.27058000  1.0 -0.5333232435
O  O8  1  0.83399000  0.53297000  0.22942000  1.0 -0.5333232435
O  O9  1  0.54602000  0.70698000  0.19112000  1.0 -0.5178085121
O  O10  1  0.70698000  0.54602000  0.30888000  1.0 -0.5178085121
O  O11  1  0.72950000  0.73172000  0.04870000  1.0 -0.5103788825
O  O12  1  0.73172000  0.72950000  0.45130000  1.0 -0.5103788825
O  O13  1  0.54215000  0.81361000  0.14336000  1.0 -0.4839648557
O  O14  1  0.81361000  0.54215000  0.35664000  1.0 -0.4857389661
O  O15  1  0.73597000  0.57705000  0.48804000  1.0 -0.5014469179
O  O16  1  0.57705000  0.73597000  0.01196000  1.0 -0.5014469179
O  O17  1  0.57672000  0.73998000  0.39049000  1.0 -0.5178085121
O  O18  1  0.73998000  0.57672000  0.10951000  1.0 -0.5178085121
O  O19  1  0.70165000  0.60515000  0.56870000  1.0 -0.4484906646
O  O20  1  0.60515000  0.70165000  0.93130000  1.0 -0.4590883704
O  O21  1  0.30362000  0.19902000  0.80128000  1.0 -0.4857389661
O  O22  1  0.19902000  0.30362000  0.69872000  1.0 -0.4857389661
O  O23  1  0.32206000  0.29902000  0.68678000  1.0 -0.819415048
O  O24  1  0.29902000  0.32206000  0.81322000  1.0 -0.819415048
O  O25  1  0.17493000  0.31629000  0.83063000  1.0 -0.5352971705
O  O26  1  0.31629000  0.17493000  0.66937000  1.0 -0.5352971705
O  O27  1  0.46703000  0.16601000  0.72942000  1.0 -0.5352971705
O  O28  1  0.16601000  0.46703000  0.77058000  1.0 -0.5352971705
O  O29  1  0.45398000  0.29302000  0.80888000  1.0 -0.5178085121
O  O30  1  0.29302000  0.45398000  0.69112000  1.0 -0.5178085121
O  O31  1  0.27050000  0.26828000  0.95130000  1.0 -0.5103788825
O  O32  1  0.26828000  0.27050000  0.54870000  1.0 -0.5103788825
O  O33  1  0.45785000  0.18639000  0.85664000  1.0 -0.4839648557
O  O34  1  0.18639000  0.45785000  0.64336000  1.0 -0.4839648557
O  O35  1  0.26403000  0.42295000  0.51196000  1.0 -0.5014469179
O  O36  1  0.42295000  0.26403000  0.98804000  1.0 -0.5014469179
O  O37  1  0.42328000  0.26002000  0.60951000  1.0 -0.5178085121
O  O38  1  0.26002000  0.42328000  0.89049000  1.0 -0.5178085121
O  O39  1  0.29835000  0.39485000  0.43130000  1.0 -0.4590883704
O  O40  1  0.39485000  0.29835000  0.06870000  1.0 -0.4590883704
