# DDEC6 charges by PACMAN v1.1 (https://github.com/mtap-research/PACMAN-charge/)
data_ZATPIW_FSR_pacman
_symmetry_space_group_name_H-M   'P 1'
_cell_length_a   20.66980000
_cell_length_b   20.66980000
_cell_length_c   20.66980000
_cell_angle_alpha   96.12280000
_cell_angle_beta   96.12280000
_cell_angle_gamma   141.87600000
_symmetry_Int_Tables_number   1
_chemical_formula_structural   Zr3H2C18S4(N5O8)2
_chemical_formula_sum   'Zr12 H8 C72 S16 N40 O64'
_cell_volume   5152.99933455
_cell_formula_units_Z   4
loop_
 _symmetry_equiv_pos_site_id
 _symmetry_equiv_pos_as_xyz
  1  'x, y, z'
loop_
 _atom_site_type_symbol
 _atom_site_label
 _atom_site_symmetry_multiplicity
 _atom_site_fract_x
 _atom_site_fract_y
 _atom_site_fract_z
 _atom_site_occupancy
 _atom_site_charge
Zr  Zr1  1  0.07342000  0.95438000  0.04616000  1.0 2.2308221976
Zr  Zr2  1  0.90822000  0.02726000  0.95384000  1.0 2.2308221976
Zr  Zr3  1  0.97274000  0.92658000  0.88096000  1.0 2.2308221976
Zr  Zr4  1  0.04562000  0.09178000  0.11904000  1.0 2.2308221976
Zr  Zr5  1  0.17658000  0.72274000  0.38096000  1.0 2.2308221976
Zr  Zr6  1  0.34178000  0.79562000  0.61904000  1.0 2.2308221976
Zr  Zr7  1  0.27726000  0.65822000  0.45384000  1.0 2.2308221976
Zr  Zr8  1  0.20438000  0.82342000  0.54616000  1.0 2.2308221976
Zr  Zr9  1  0.81399000  0.81399000  0.00000000  1.0 2.1137693743
Zr  Zr10  1  0.18601000  0.18601000  0.00000000  1.0 2.1137693743
Zr  Zr11  1  0.43601000  0.93601000  0.50000000  1.0 2.1137693743
Zr  Zr12  1  0.06399000  0.56399000  0.50000000  1.0 2.1155672888
H  H1  1  0.50487000  0.59636000  0.90265000  1.0 0.15405371
H  H2  1  0.69371000  0.60222000  0.09735000  1.0 0.15405371
H  H3  1  0.39778000  0.49513000  0.09149000  1.0 0.15405371
H  H4  1  0.40364000  0.30629000  0.90851000  1.0 0.15405371
H  H5  1  0.74513000  0.14778000  0.59149000  1.0 0.15405371
H  H6  1  0.55629000  0.15364000  0.40851000  1.0 0.15405371
H  H7  1  0.85222000  0.44371000  0.59735000  1.0 0.15405371
H  H8  1  0.84636000  0.25487000  0.40265000  1.0 0.15405371
C  C1  1  0.60749000  0.57429000  0.67994000  1.0 0.2087653535
C  C2  1  0.51569000  0.60492000  0.60555000  1.0 0.1994360755
C  C3  1  0.73820000  0.67760000  0.85700000  1.0 0.6472211476
C  C4  1  0.68565000  0.57439000  0.81624000  1.0 -0.2510516499
C  C5  1  0.47405000  0.69700000  0.62005000  1.0 -0.1927494486
C  C6  1  0.44231000  0.74169000  0.60220000  1.0 0.6601815517
C  C7  1  0.55040000  0.64058000  0.95068000  1.0 0.2598570637
C  C8  1  0.40090000  0.55519000  0.97983000  1.0 -0.0243287613
C  C9  1  0.56626000  0.68586000  0.06082000  1.0 0.1394034563
C  C10  1  0.89435000  0.92755000  0.32006000  1.0 0.2087653535
C  C11  1  0.99937000  0.91014000  0.39445000  1.0 0.1994360755
C  C12  1  0.82060000  0.88120000  0.14300000  1.0 0.6472211476
C  C13  1  0.75815000  0.86941000  0.18376000  1.0 -0.2510516499
C  C14  1  0.07695000  0.85400000  0.37995000  1.0 -0.1927494486
C  C15  1  0.13949000  0.84011000  0.39780000  1.0 0.6601815517
C  C16  1  0.68990000  0.59972000  0.04932000  1.0 0.2598570637
C  C17  1  0.57536000  0.42107000  0.02017000  1.0 -0.0243287613
C  C18  1  0.62504000  0.50544000  0.93918000  1.0 0.1394034563
C  C19  1  0.07245000  0.39251000  0.96680000  1.0 0.2087653535
C  C20  1  0.08986000  0.48431000  0.08923000  1.0 0.1994360755
C  C21  1  0.11880000  0.26180000  0.93940000  1.0 0.6472211476
C  C22  1  0.13059000  0.31435000  0.88874000  1.0 -0.2510516499
C  C23  1  0.14600000  0.52595000  0.22295000  1.0 -0.1927494486
C  C24  1  0.15989000  0.55769000  0.29938000  1.0 0.6601815517
C  C25  1  0.40028000  0.44960000  0.09018000  1.0 0.2598570637
C  C26  1  0.57893000  0.59910000  0.15429000  1.0 -0.0243287613
C  C27  1  0.49456000  0.43374000  0.11960000  1.0 0.1394034563
C  C28  1  0.42571000  0.10565000  0.03320000  1.0 0.2087653535
C  C29  1  0.39508000  0.00063000  0.91077000  1.0 0.1994360755
C  C30  1  0.32240000  0.17940000  0.06060000  1.0 0.6472211476
C  C31  1  0.42561000  0.24185000  0.11126000  1.0 -0.2510516499
C  C32  1  0.30300000  0.92305000  0.77705000  1.0 -0.1927494486
C  C33  1  0.25831000  0.86051000  0.70062000  1.0 0.6601815517
C  C34  1  0.35942000  0.31010000  0.90982000  1.0 0.2598570637
C  C35  1  0.44481000  0.42464000  0.84571000  1.0 -0.0243287613
C  C36  1  0.31414000  0.37496000  0.88040000  1.0 0.1394034563
C  C37  1  0.64251000  0.82245000  0.46680000  1.0 0.2087653535
C  C38  1  0.73431000  0.83986000  0.58923000  1.0 0.1994360755
C  C39  1  0.51180000  0.86880000  0.43940000  1.0 0.6472211476
C  C40  1  0.56435000  0.88059000  0.38874000  1.0 -0.2510516499
C  C41  1  0.77595000  0.89600000  0.72295000  1.0 -0.1927494486
C  C42  1  0.80769000  0.90989000  0.79938000  1.0 0.6601815517
C  C43  1  0.69960000  0.15028000  0.59018000  1.0 0.2598570637
C  C44  1  0.84910000  0.32893000  0.65429000  1.0 -0.0243287613
C  C45  1  0.68374000  0.24456000  0.61960000  1.0 0.1394034563
C  C46  1  0.35565000  0.17571000  0.53320000  1.0 0.2087653535
C  C47  1  0.25063000  0.14508000  0.41077000  1.0 0.1994360755
C  C48  1  0.42940000  0.07240000  0.56060000  1.0 0.6472211476
C  C49  1  0.49185000  0.17561000  0.61126000  1.0 -0.2510516499
C  C50  1  0.17305000  0.05300000  0.27705000  1.0 -0.1927494486
C  C51  1  0.11051000  0.00831000  0.20062000  1.0 0.6601815517
C  C52  1  0.56010000  0.10942000  0.40982000  1.0 0.2598570637
C  C53  1  0.67464000  0.19481000  0.34571000  1.0 -0.0243287613
C  C54  1  0.62496000  0.06414000  0.38040000  1.0 0.1394034563
C  C55  1  0.17755000  0.64435000  0.82006000  1.0 0.2087653535
C  C56  1  0.16014000  0.74937000  0.89445000  1.0 0.1994360755
C  C57  1  0.13120000  0.57060000  0.64300000  1.0 0.6472211476
C  C58  1  0.11941000  0.50815000  0.68376000  1.0 -0.2510516499
C  C59  1  0.10400000  0.82695000  0.87995000  1.0 -0.1927494486
C  C60  1  0.09011000  0.88949000  0.89780000  1.0 0.6601815517
C  C61  1  0.84972000  0.43990000  0.54932000  1.0 0.2598570637
C  C62  1  0.67107000  0.32536000  0.52017000  1.0 -0.0243287613
C  C63  1  0.75544000  0.37504000  0.43918000  1.0 0.1394034563
C  C64  1  0.82429000  0.35749000  0.17994000  1.0 0.2087653535
C  C65  1  0.85492000  0.26569000  0.10555000  1.0 0.1994360755
C  C66  1  0.92760000  0.48820000  0.35700000  1.0 0.6472211476
C  C67  1  0.82439000  0.43565000  0.31624000  1.0 -0.2510516499
C  C68  1  0.94700000  0.22405000  0.12005000  1.0 -0.1951107164
C  C69  1  0.99169000  0.19231000  0.10220000  1.0 0.6601815517
C  C70  1  0.89058000  0.30040000  0.45068000  1.0 0.2598570637
C  C71  1  0.80519000  0.15090000  0.47983000  1.0 -0.0243287613
C  C72  1  0.93586000  0.31626000  0.56082000  1.0 0.1394034563
S  S1  1  0.66555000  0.55492000  0.72699000  1.0 0.1275912323
S  S2  1  0.45764000  0.62431000  0.55851000  1.0 0.1894504666
S  S3  1  0.82793000  0.93856000  0.27301000  1.0 0.1275912323
S  S4  1  0.06580000  0.89913000  0.44149000  1.0 0.1894504666
S  S5  1  0.06144000  0.33445000  0.88937000  1.0 0.1275912323
S  S6  1  0.10087000  0.54236000  0.16667000  1.0 0.1894504666
S  S7  1  0.44508000  0.17207000  0.11063000  1.0 0.1275912323
S  S8  1  0.37569000  0.93420000  0.83333000  1.0 0.1894504666
S  S9  1  0.58445000  0.81144000  0.38937000  1.0 0.1275912323
S  S10  1  0.79236000  0.85087000  0.66666667  1.0 0.1894504666
S  S11  1  0.42207000  0.19508000  0.61063000  1.0 0.1275912323
S  S12  1  0.18420000  0.12569000  0.33333333  1.0 0.1894504666
S  S13  1  0.18856000  0.57793000  0.77301000  1.0 0.1275912323
S  S14  1  0.14913000  0.81580000  0.94149000  1.0 0.1894504666
S  S15  1  0.80492000  0.41555000  0.22699000  1.0 0.1275912323
S  S16  1  0.87431000  0.20764000  0.05851000  1.0 0.1894504666
N  N1  1  0.60734000  0.63644000  0.71402000  1.0 -0.1638683351
N  N2  1  0.56145000  0.65176000  0.67683000  1.0 -0.1188691509
N  N3  1  0.51584000  0.54278000  0.57148000  1.0 -0.1188691509
N  N4  1  0.56174000  0.52746000  0.60866000  1.0 -0.1188691509
N  N5  1  0.50585000  0.62720000  0.99711000  1.0 -0.1543236752
N  N6  1  0.92242000  0.89332000  0.28598000  1.0 -0.1638683351
N  N7  1  0.97493000  0.88462000  0.32317000  1.0 -0.1188691509
N  N8  1  0.97130000  0.94436000  0.42852000  1.0 -0.1188691509
N  N9  1  0.91880000  0.95308000  0.39134000  1.0 -0.1188691509
N  N10  1  0.63009000  0.50874000  0.00289000  1.0 -0.1543236752
N  N11  1  0.10668000  0.39266000  0.02910000  1.0 -0.1638683351
N  N12  1  0.11538000  0.43855000  0.09031000  1.0 -0.1146690329
N  N13  1  0.05564000  0.48416000  0.02694000  1.0 -0.1188691509
N  N14  1  0.04692000  0.43826000  0.96572000  1.0 -0.1188691509
N  N15  1  0.49126000  0.49415000  0.12135000  1.0 -0.1543236752
N  N16  1  0.36356000  0.07758000  0.97090000  1.0 -0.1638683351
N  N17  1  0.34824000  0.02507000  0.90969000  1.0 -0.1188691509
N  N18  1  0.45722000  0.02870000  0.97306000  1.0 -0.1146690329
N  N19  1  0.47254000  0.08120000  0.03428000  1.0 -0.1188691509
N  N20  1  0.37280000  0.36991000  0.87865000  1.0 -0.1543236752
N  N21  1  0.64266000  0.85668000  0.52910000  1.0 -0.1638683351
N  N22  1  0.68855000  0.86538000  0.59031000  1.0 -0.1188691509
N  N23  1  0.73416000  0.80564000  0.52694000  1.0 -0.1188691509
N  N24  1  0.68826000  0.79692000  0.46572000  1.0 -0.1188691509
N  N25  1  0.74415000  0.24126000  0.62135000  1.0 -0.1543236752
N  N26  1  0.32758000  0.11356000  0.47090000  1.0 -0.1638683351
N  N27  1  0.27507000  0.09824000  0.40969000  1.0 -0.1188691509
N  N28  1  0.27870000  0.20722000  0.47306000  1.0 -0.1146690329
N  N29  1  0.33120000  0.22254000  0.53428000  1.0 -0.1188691509
N  N30  1  0.61991000  0.12280000  0.37865000  1.0 -0.1543236752
N  N31  1  0.14332000  0.67242000  0.78598000  1.0 -0.1638683351
N  N32  1  0.13462000  0.72493000  0.82317000  1.0 -0.1188691509
N  N33  1  0.19436000  0.72130000  0.92852000  1.0 -0.1188691509
N  N34  1  0.20308000  0.66880000  0.89134000  1.0 -0.1188691509
N  N35  1  0.75874000  0.38009000  0.50289000  1.0 -0.1543236752
N  N36  1  0.88644000  0.35734000  0.21402000  1.0 -0.1657460113
N  N37  1  0.90176000  0.31145000  0.17683000  1.0 -0.1188691509
N  N38  1  0.79278000  0.26584000  0.07148000  1.0 -0.1146690329
N  N39  1  0.77746000  0.31174000  0.10866000  1.0 -0.1188691509
N  N40  1  0.87720000  0.25585000  0.49711000  1.0 -0.1543236752
O  O1  1  0.69700000  0.67446000  0.90326000  1.0 -0.4974736352
O  O2  1  0.38125000  0.68911000  0.53996000  1.0 -0.5237349351
O  O3  1  0.43868000  0.79048000  0.65136000  1.0 -0.5699766953
O  O4  1  0.82390000  0.76560000  0.84470000  1.0 -0.5982556124
O  O5  1  0.65536000  0.71260000  0.96796000  1.0 -0.4935775538
O  O6  1  0.93680000  0.85550000  0.96190000  1.0 -0.7092004348
O  O7  1  0.97560000  0.95270000  0.05930000  1.0 -0.6582161342
O  O8  1  0.00460000  0.81630000  0.05930000  1.0 -0.6766151368
O  O9  1  0.77120000  0.79374000  0.09674000  1.0 -0.4974736352
O  O10  1  0.14915000  0.84129000  0.46004000  1.0 -0.5237349351
O  O11  1  0.13912000  0.78732000  0.34864000  1.0 -0.5699766953
O  O12  1  0.92090000  0.97920000  0.15530000  1.0 -0.5982556124
O  O13  1  0.74464000  0.68740000  0.03204000  1.0 -0.4935775538
O  O14  1  0.89360000  0.97490000  0.03810000  1.0 -0.7092004348
O  O15  1  0.89340000  0.91630000  0.94070000  1.0 -0.6582161342
O  O16  1  0.75700000  0.94530000  0.94070000  1.0 -0.6766151368
O  O17  1  0.20626000  0.30300000  0.97746000  1.0 -0.4974736352
O  O18  1  0.15871000  0.61875000  0.30786000  1.0 -0.5237349351
O  O19  1  0.21268000  0.56132000  0.35180000  1.0 -0.5699766953
O  O20  1  0.02080000  0.17610000  0.94170000  1.0 -0.5982556124
O  O21  1  0.31260000  0.34464000  0.05724000  1.0 -0.4935775538
O  O22  1  0.02510000  0.06320000  0.91870000  1.0 -0.7092004348
O  O23  1  0.08370000  0.02440000  0.97710000  1.0 -0.6582161342
O  O24  1  0.05470000  0.99540000  0.81170000  1.0 -0.6927006622
O  O25  1  0.32554000  0.22880000  0.02254000  1.0 -0.4974736352
O  O26  1  0.31089000  0.85085000  0.69214000  1.0 -0.5237349351
O  O27  1  0.20952000  0.86088000  0.64820000  1.0 -0.5699766953
O  O28  1  0.23440000  0.07910000  0.05830000  1.0 -0.5982556124
O  O29  1  0.28740000  0.25536000  0.94276000  1.0 -0.4935775538
O  O30  1  0.14450000  0.10640000  0.08130000  1.0 -0.7092004348
O  O31  1  0.04730000  0.10660000  0.02290000  1.0 -0.6582161342
O  O32  1  0.18370000  0.24300000  0.18830000  1.0 -0.6766151368
O  O33  1  0.55300000  0.95626000  0.47746000  1.0 -0.4974736352
O  O34  1  0.86875000  0.90871000  0.80786000  1.0 -0.5237349351
O  O35  1  0.81132000  0.96268000  0.85180000  1.0 -0.5699766953
O  O36  1  0.42610000  0.77080000  0.44170000  1.0 -0.5982556124
O  O37  1  0.59464000  0.06260000  0.55724000  1.0 -0.4974736352
O  O38  1  0.31320000  0.77510000  0.41870000  1.0 -0.7092004348
O  O39  1  0.27440000  0.83370000  0.47710000  1.0 -0.6582161342
O  O40  1  0.24540000  0.80470000  0.31170000  1.0 -0.6766151368
O  O41  1  0.47880000  0.07554000  0.52254000  1.0 -0.4974736352
O  O42  1  0.10085000  0.06089000  0.19214000  1.0 -0.5237349351
O  O43  1  0.11088000  0.95952000  0.14820000  1.0 -0.5699766953
O  O44  1  0.32910000  0.98440000  0.55830000  1.0 -0.5982556124
O  O45  1  0.50536000  0.03740000  0.44276000  1.0 -0.4935775538
O  O46  1  0.35640000  0.89450000  0.58130000  1.0 -0.7092004348
O  O47  1  0.35660000  0.79730000  0.52290000  1.0 -0.6582161342
O  O48  1  0.49300000  0.93370000  0.68830000  1.0 -0.6766151368
O  O49  1  0.04374000  0.52120000  0.59674000  1.0 -0.4974736352
O  O50  1  0.09129000  0.89915000  0.96004000  1.0 -0.5237349351
O  O51  1  0.03732000  0.88912000  0.84864000  1.0 -0.5699766953
O  O52  1  0.22920000  0.67090000  0.65530000  1.0 -0.5982556124
O  O53  1  0.93740000  0.49464000  0.53204000  1.0 -0.4974736352
O  O54  1  0.22490000  0.64360000  0.53810000  1.0 -0.7092004348
O  O55  1  0.16630000  0.64340000  0.44070000  1.0 -0.6582161342
O  O56  1  0.19530000  0.50700000  0.44070000  1.0 -0.6927006622
O  O57  1  0.92446000  0.44700000  0.40326000  1.0 -0.4974736352
O  O58  1  0.93911000  0.13125000  0.03996000  1.0 -0.5237349351
O  O59  1  0.04048000  0.18868000  0.15136000  1.0 -0.5699766953
O  O60  1  0.01560000  0.57390000  0.34470000  1.0 -0.5982556124
O  O61  1  0.96260000  0.40536000  0.46796000  1.0 -0.4974736352
O  O62  1  0.10550000  0.68680000  0.46190000  1.0 -0.7092004348
O  O63  1  0.20270000  0.72560000  0.55930000  1.0 -0.6582161342
O  O64  1  0.06630000  0.75460000  0.55930000  1.0 -0.6766151368
