# DDEC6 charges by PACMAN v1.1 (https://github.com/mtap-research/PACMAN-charge/)
data_ZAVQOG_FSR_pacman
_symmetry_space_group_name_H-M   'P 1'
_cell_length_a   10.08740000
_cell_length_b   14.45610000
_cell_length_c   17.96500000
_cell_angle_alpha   104.32200000
_cell_angle_beta   99.56700000
_cell_angle_gamma   100.86600000
_symmetry_Int_Tables_number   1
_chemical_formula_structural   Eu2H50C46N6O17
_chemical_formula_sum   'Eu4 H100 C92 N12 O34'
_cell_volume   2429.65136221
_cell_formula_units_Z   2
loop_
 _symmetry_equiv_pos_site_id
 _symmetry_equiv_pos_as_xyz
  1  'x, y, z'
loop_
 _atom_site_type_symbol
 _atom_site_label
 _atom_site_symmetry_multiplicity
 _atom_site_fract_x
 _atom_site_fract_y
 _atom_site_fract_z
 _atom_site_occupancy
 _atom_site_charge
Eu  Eu1  1  0.22326000  0.97257000  0.33035000  1.0 2.1358897201
Eu  Eu2  1  0.72695000  0.96437000  0.32786000  1.0 2.1592715494
Eu  Eu3  1  0.77674000  0.02743000  0.66965000  1.0 2.1358897201
Eu  Eu4  1  0.27305000  0.03563000  0.67214000  1.0 2.1592715494
H  H1  1  0.95960000  0.86290000  0.23040000  1.0 0.3493106327
H  H2  1  0.05240000  0.82870000  0.19090000  1.0 0.3493106327
H  H3  1  0.32000000  0.06500000  0.21120000  1.0 0.4124114029
H  H4  1  0.24010000  0.95700000  0.16330000  1.0 0.4320199899
H  H5  1  0.51120000  0.03200000  0.23860000  1.0 0.3826747946
H  H6  1  0.60450000  0.00040000  0.18000000  1.0 0.4022817723
H  H7  1  0.36090000  0.95050000  0.48020000  1.0 0.3493106327
H  H8  1  0.44900000  0.92930000  0.43110000  1.0 0.3493106327
H  H9  1  0.90180000  0.10840000  0.46880000  1.0 0.3605489544
H  H10  1  0.98970000  0.05470000  0.43900000  1.0 0.3665239922
H  H11  1  0.80990000  0.44790000  0.48720000  1.0 0.1102528249
H  H12  1  0.77400000  0.28120000  0.46400000  1.0 0.1385815404
H  H13  1  0.53760000  0.72400000  0.37370000  1.0 0.1385815404
H  H14  1  0.81550000  0.20630000  0.30680000  1.0 0.1303138588
H  H15  1  0.81050000  0.36820000  0.32080000  1.0 0.1303138588
H  H16  1  0.17340000  0.41420000  0.25630000  1.0 0.0879634618
H  H17  1  0.18450000  0.25500000  0.25630000  1.0 0.1213368978
H  H18  1  0.77740000  0.48570000  0.24430000  1.0 0.1303138588
H  H19  1  0.76080000  0.64780000  0.26960000  1.0 0.1303138588
H  H20  1  0.16080000  0.73920000  0.37980000  1.0 0.1303138588
H  H21  1  0.15900000  0.66820000  0.17370000  1.0 0.1303138588
H  H22  1  0.12800000  0.51280000  0.08770000  1.0 0.1303138588
H  H23  1  0.53960000  0.55170000  0.11700000  1.0 0.1213368978
H  H24  1  0.56870000  0.70400000  0.20300000  1.0 0.1303138588
H  H25  1  0.19390000  0.43190000  0.94630000  1.0 0.0879634618
H  H26  1  0.19100000  0.28540000  0.85650000  1.0 0.1102528249
H  H27  1  0.42430000  0.21750000  0.02980000  1.0 0.1303138588
H  H28  1  0.45270000  0.43060000  0.17210000  1.0 0.1532002327
H  H29  1  0.39710000  0.33050000  0.16780000  1.0 0.1532002327
H  H30  1  0.30830000  0.61680000  0.35410000  1.0 0.1823158375
H  H31  1  0.25780000  0.58500000  0.41900000  1.0 0.1532002327
H  H32  1  0.54290000  0.51830000  0.27410000  1.0 0.2015634141
H  H33  1  0.45200000  0.57860000  0.29040000  1.0 0.1582978586
H  H34  1  0.45570000  0.23730000  0.29720000  1.0 0.1213368978
H  H35  1  0.51070000  0.40740000  0.31020000  1.0 0.1213368978
H  H36  1  0.77890000  0.76320000  0.58120000  1.0 0.1012182749
H  H37  1  0.72160000  0.59910000  0.55740000  1.0 0.1102528249
H  H38  1  0.50160000  0.55800000  0.35070000  1.0 0.1385815404
H  H39  1  0.18040000  0.57830000  0.35360000  1.0 0.1012182749
H  H40  1  0.42680000  0.36370000  0.11660000  1.0 0.0879634618
H  H41  1  0.22840000  0.47670000  0.90020000  1.0 0.1726340763
H  H42  1  0.09330000  0.42040000  0.89930000  1.0 0.1582978586
H  H43  1  0.21450000  0.40450000  0.19880000  1.0 0.1582978586
H  H44  1  0.20340000  0.48910000  0.25420000  1.0 0.1582978586
H  H45  1  0.90030000  0.52700000  0.50280000  1.0 0.1102528249
H  H46  1  0.93670000  0.43440000  0.50280000  1.0 0.1726340763
H  H47  1  0.37940000  0.24910000  0.37300000  1.0 0.1213368978
H  H48  1  0.42150000  0.41740000  0.39140000  1.0 0.1213368978
H  H49  1  0.87090000  0.76820000  0.53610000  1.0 0.1012182749
H  H50  1  0.84460000  0.60090000  0.51640000  1.0 0.0879634618
H  H51  1  0.04040000  0.13710000  0.76960000  1.0 0.3493106327
H  H52  1  0.94760000  0.17130000  0.80910000  1.0 0.3493106327
H  H53  1  0.68000000  0.93500000  0.78880000  1.0 0.4124114029
H  H54  1  0.75990000  0.04300000  0.83670000  1.0 0.4320199899
H  H55  1  0.48880000  0.96800000  0.76140000  1.0 0.3826747946
H  H56  1  0.39550000  0.99960000  0.82000000  1.0 0.4022817723
H  H57  1  0.63910000  0.04950000  0.51980000  1.0 0.3493106327
H  H58  1  0.55100000  0.07070000  0.56890000  1.0 0.3493106327
H  H59  1  0.09820000  0.89160000  0.53120000  1.0 0.3605489544
H  H60  1  0.01030000  0.94530000  0.56100000  1.0 0.3665239922
H  H61  1  0.19010000  0.55210000  0.51280000  1.0 0.1102528249
H  H62  1  0.22600000  0.71880000  0.53600000  1.0 0.1385815404
H  H63  1  0.46240000  0.27600000  0.62630000  1.0 0.1385815404
H  H64  1  0.18450000  0.79370000  0.69320000  1.0 0.1303138588
H  H65  1  0.18950000  0.63180000  0.67920000  1.0 0.1303138588
H  H66  1  0.82660000  0.58580000  0.74370000  1.0 0.0879634618
H  H67  1  0.81550000  0.74500000  0.74370000  1.0 0.1213368978
H  H68  1  0.22260000  0.51430000  0.75570000  1.0 0.1303138588
H  H69  1  0.23920000  0.35220000  0.73040000  1.0 0.1303138588
H  H70  1  0.83920000  0.26080000  0.62020000  1.0 0.1303138588
H  H71  1  0.84100000  0.33180000  0.82630000  1.0 0.1303138588
H  H72  1  0.87200000  0.48720000  0.91230000  1.0 0.1303138588
H  H73  1  0.46040000  0.44830000  0.88300000  1.0 0.1213368978
H  H74  1  0.43130000  0.29600000  0.79700000  1.0 0.1303138588
H  H75  1  0.80610000  0.56810000  0.05370000  1.0 0.0879634618
H  H76  1  0.80900000  0.71460000  0.14350000  1.0 0.1102528249
H  H77  1  0.57570000  0.78250000  0.97020000  1.0 0.1303138588
H  H78  1  0.54730000  0.56940000  0.82790000  1.0 0.1532002327
H  H79  1  0.60290000  0.66950000  0.83220000  1.0 0.1532002327
H  H80  1  0.69170000  0.38320000  0.64590000  1.0 0.1823158375
H  H81  1  0.74220000  0.41500000  0.58100000  1.0 0.1532002327
H  H82  1  0.45710000  0.48170000  0.72590000  1.0 0.2015634141
H  H83  1  0.54800000  0.42140000  0.70960000  1.0 0.1582978586
H  H84  1  0.54430000  0.76270000  0.70280000  1.0 0.1213368978
H  H85  1  0.48930000  0.59260000  0.68980000  1.0 0.1213368978
H  H86  1  0.22110000  0.23680000  0.41880000  1.0 0.1012182749
H  H87  1  0.27840000  0.40090000  0.44260000  1.0 0.1102528249
H  H88  1  0.49840000  0.44200000  0.64930000  1.0 0.1385815404
H  H89  1  0.81960000  0.42170000  0.64640000  1.0 0.1012182749
H  H90  1  0.57320000  0.63630000  0.88340000  1.0 0.0879634618
H  H91  1  0.77160000  0.52330000  0.09980000  1.0 0.1726340763
H  H92  1  0.90670000  0.57960000  0.10070000  1.0 0.1582978586
H  H93  1  0.78550000  0.59550000  0.80120000  1.0 0.1582978586
H  H94  1  0.79660000  0.51090000  0.74580000  1.0 0.1726340763
H  H95  1  0.09970000  0.47300000  0.49720000  1.0 0.1102528249
H  H96  1  0.06330000  0.56560000  0.49720000  1.0 0.1726340763
H  H97  1  0.62060000  0.75090000  0.62700000  1.0 0.1213368978
H  H98  1  0.57850000  0.58260000  0.60860000  1.0 0.1213368978
H  H99  1  0.12910000  0.23180000  0.46390000  1.0 0.1012182749
H  H100  1  0.15540000  0.39910000  0.48360000  1.0 0.0879634618
C  C1  1  0.55360000  0.13700000  0.39110000  1.0 0.6382510177
C  C2  1  0.58080000  0.24680000  0.40690000  1.0 -0.0050384263
C  C3  1  0.62780000  0.45040000  0.42760000  1.0 -0.0025011239
C  C4  1  0.72480000  0.40790000  0.45740000  1.0 0.0104175159
C  C5  1  0.70220000  0.30710000  0.44500000  1.0 -0.2296376515
C  C6  1  0.65480000  0.55770000  0.43920000  1.0 -0.0614460902
C  C7  1  0.57230000  0.59920000  0.39240000  1.0 0.0369128119
C  C8  1  0.59350000  0.69930000  0.40670000  1.0 -0.2296376515
C  C9  1  0.69150000  0.76230000  0.46610000  1.0 -0.0025011239
C  C10  1  0.71270000  0.87100000  0.48270000  1.0 0.6244432441
C  C11  1  0.01670000  0.11650000  0.29180000  1.0 0.6382510177
C  C12  1  0.00420000  0.21680000  0.28570000  1.0 -0.0284647001
C  C13  1  0.89070000  0.24940000  0.30020000  1.0 -0.1067968589
C  C14  1  0.88520000  0.34580000  0.30550000  1.0 -0.1315750219
C  C15  1  0.98860000  0.40960000  0.28830000  1.0 0.0104175159
C  C16  1  0.10220000  0.37410000  0.26890000  1.0 0.1012182749
C  C17  1  0.10820000  0.27780000  0.26850000  1.0 -0.2296376515
C  C18  1  0.98190000  0.51320000  0.29830000  1.0 -0.0025011239
C  C19  1  0.85470000  0.53620000  0.27200000  1.0 -0.1904031821
C  C20  1  0.84470000  0.63380000  0.28720000  1.0 -0.1315750219
C  C21  1  0.95730000  0.70910000  0.32800000  1.0 -0.0284647001
C  C22  1  0.08370000  0.68820000  0.35280000  1.0 -0.1904031821
C  C23  1  0.09510000  0.59110000  0.33730000  1.0 0.1102528249
C  C24  1  0.94500000  0.81420000  0.34590000  1.0 0.6382510177
C  C25  1  0.39020000  0.80490000  0.25070000  1.0 0.6479724161
C  C26  1  0.36720000  0.70220000  0.19620000  1.0 -0.0199316482
C  C27  1  0.23530000  0.64490000  0.16230000  1.0 -0.1067968589
C  C28  1  0.21720000  0.55140000  0.11070000  1.0 -0.1485278682
C  C29  1  0.32980000  0.51490000  0.09320000  1.0 0.0805048607
C  C30  1  0.46260000  0.57420000  0.12820000  1.0 -0.1699503363
C  C31  1  0.47960000  0.66560000  0.17920000  1.0 -0.0963888728
C  C32  1  0.31470000  0.41440000  0.04000000  1.0 -0.1485278682
C  C33  1  0.24160000  0.38870000  0.96270000  1.0 0.1102528249
C  C34  1  0.23760000  0.30010000  0.90870000  1.0 -0.236466948
C  C35  1  0.30480000  0.23340000  0.93440000  1.0 -0.0025011239
C  C36  1  0.37700000  0.26020000  0.01240000  1.0 -0.1699503363
C  C37  1  0.38000000  0.34850000  0.06430000  1.0 0.1012182749
C  C38  1  0.31380000  0.14060000  0.87700000  1.0 0.604579281
C  C39  1  0.51500000  0.28200000  0.34200000  1.0 -0.0199316482
C  C40  1  0.54400000  0.38300000  0.35100000  1.0 -0.0614460902
C  C41  1  0.73400000  0.72200000  0.53100000  1.0 -0.0199316482
C  C42  1  0.70600000  0.62500000  0.51500000  1.0 -0.0614460902
C  C43  1  0.46940000  0.28810000  0.39080000  1.0 -0.0548744016
C  C44  1  0.49590000  0.38950000  0.40180000  1.0 -0.0614460902
C  C45  1  0.79110000  0.72490000  0.50260000  1.0 -0.0199316482
C  C46  1  0.77600000  0.62430000  0.49070000  1.0 -0.0199316482
C  C47  1  0.44640000  0.86300000  0.60890000  1.0 0.6382510177
C  C48  1  0.41920000  0.75320000  0.59310000  1.0 -0.0050384263
C  C49  1  0.37220000  0.54960000  0.57240000  1.0 -0.0025011239
C  C50  1  0.27520000  0.59210000  0.54260000  1.0 0.0104175159
C  C51  1  0.29780000  0.69290000  0.55500000  1.0 -0.2296376515
C  C52  1  0.34520000  0.44230000  0.56080000  1.0 -0.0614460902
C  C53  1  0.42770000  0.40080000  0.60760000  1.0 0.0369128119
C  C54  1  0.40650000  0.30070000  0.59330000  1.0 -0.2296376515
C  C55  1  0.30850000  0.23770000  0.53390000  1.0 -0.0025011239
C  C56  1  0.28730000  0.12900000  0.51730000  1.0 0.6244432441
C  C57  1  0.98330000  0.88350000  0.70820000  1.0 0.6382510177
C  C58  1  0.99580000  0.78320000  0.71430000  1.0 -0.0284647001
C  C59  1  0.10930000  0.75060000  0.69980000  1.0 -0.1067968589
C  C60  1  0.11480000  0.65420000  0.69450000  1.0 -0.1315750219
C  C61  1  0.01140000  0.59040000  0.71170000  1.0 0.0104175159
C  C62  1  0.89780000  0.62590000  0.73110000  1.0 0.1012182749
C  C63  1  0.89180000  0.72220000  0.73150000  1.0 -0.2296376515
C  C64  1  0.01810000  0.48680000  0.70170000  1.0 -0.0025011239
C  C65  1  0.14530000  0.46380000  0.72800000  1.0 -0.1904031821
C  C66  1  0.15530000  0.36620000  0.71280000  1.0 -0.1315750219
C  C67  1  0.04270000  0.29090000  0.67200000  1.0 -0.0284647001
C  C68  1  0.91630000  0.31180000  0.64720000  1.0 -0.1904031821
C  C69  1  0.90490000  0.40890000  0.66270000  1.0 0.1102528249
C  C70  1  0.05500000  0.18580000  0.65410000  1.0 0.6382510177
C  C71  1  0.60980000  0.19510000  0.74930000  1.0 0.6479724161
C  C72  1  0.63280000  0.29780000  0.80380000  1.0 -0.0199316482
C  C73  1  0.76470000  0.35510000  0.83770000  1.0 -0.1067968589
C  C74  1  0.78280000  0.44860000  0.88930000  1.0 -0.1485278682
C  C75  1  0.67020000  0.48510000  0.90680000  1.0 0.0805048607
C  C76  1  0.53740000  0.42580000  0.87180000  1.0 -0.1699503363
C  C77  1  0.52040000  0.33440000  0.82080000  1.0 -0.0963888728
C  C78  1  0.68530000  0.58560000  0.96000000  1.0 -0.1485278682
C  C79  1  0.75840000  0.61130000  0.03730000  1.0 0.1102528249
C  C80  1  0.76240000  0.69990000  0.09130000  1.0 -0.236466948
C  C81  1  0.69520000  0.76660000  0.06560000  1.0 -0.0025011239
C  C82  1  0.62300000  0.73980000  0.98760000  1.0 -0.1699503363
C  C83  1  0.62000000  0.65150000  0.93570000  1.0 0.1012182749
C  C84  1  0.68620000  0.85940000  0.12300000  1.0 0.604579281
C  C85  1  0.48500000  0.71800000  0.65800000  1.0 -0.0199316482
C  C86  1  0.45600000  0.61700000  0.64900000  1.0 -0.0614460902
C  C87  1  0.26600000  0.27800000  0.46900000  1.0 -0.0199316482
C  C88  1  0.29400000  0.37500000  0.48500000  1.0 -0.0614460902
C  C89  1  0.53060000  0.71190000  0.60920000  1.0 -0.0548744016
C  C90  1  0.50410000  0.61050000  0.59820000  1.0 -0.0614460902
C  C91  1  0.20890000  0.27510000  0.49740000  1.0 -0.0199316482
C  C92  1  0.22400000  0.37570000  0.50930000  1.0 -0.0199316482
N  N1  1  0.44600000  0.36870000  0.14400000  1.0 -0.4806047964
N  N2  1  0.22600000  0.57600000  0.36200000  1.0 -0.4922398068
N  N3  1  0.49400000  0.53900000  0.31270000  1.0 -0.4806047964
N  N4  1  0.17800000  0.45100000  0.93100000  1.0 -0.4713146426
N  N5  1  0.21340000  0.42950000  0.24780000  1.0 -0.4806047964
N  N6  1  0.88700000  0.46400000  0.47520000  1.0 -0.499886442
N  N7  1  0.55400000  0.63130000  0.85600000  1.0 -0.4806047964
N  N8  1  0.77400000  0.42400000  0.63800000  1.0 -0.4922398068
N  N9  1  0.50600000  0.46100000  0.68730000  1.0 -0.4806047964
N  N10  1  0.82200000  0.54900000  0.06900000  1.0 -0.4713146426
N  N11  1  0.78660000  0.57050000  0.75220000  1.0 -0.4806047964
N  N12  1  0.11300000  0.53600000  0.52480000  1.0 -0.499886442
O  O1  1  0.91700000  0.06020000  0.30110000  1.0 -0.6618451365
O  O2  1  0.43050000  0.08750000  0.36770000  1.0 -0.690619234
O  O3  1  0.03390000  0.88250000  0.21520000  1.0 -0.7682534345
O  O4  1  0.65480000  0.09980000  0.40090000  1.0 -0.6294051894
O  O5  1  0.30760000  0.99710000  0.20990000  1.0 -0.8078259714
O  O6  1  0.64830000  0.90510000  0.43490000  1.0 -0.6096531637
O  O7  1  0.60480000  0.03630000  0.23270000  1.0 -0.8514683731
O  O8  1  0.79710000  0.92420000  0.54690000  1.0 -0.6662817486
O  O9  1  0.36110000  0.91610000  0.43260000  1.0 -0.7682534345
O  O10  1  0.13460000  0.09820000  0.29090000  1.0 -0.690619234
O  O11  1  0.90760000  0.04780000  0.44970000  1.0 -0.7682534345
O  O12  1  0.05610000  0.88170000  0.37570000  1.0 -0.6997184642
O  O13  1  0.82790000  0.82930000  0.33230000  1.0 -0.6352197118
O  O14  1  0.50840000  0.85660000  0.27480000  1.0 -0.6500461586
O  O15  1  0.28400000  0.83090000  0.26660000  1.0 -0.6758530625
O  O16  1  0.24880000  0.12060000  0.80630000  1.0 -0.6618451365
O  O17  1  0.38610000  0.08850000  0.90120000  1.0 -0.5143015869
O  O18  1  0.08300000  0.93980000  0.69890000  1.0 -0.6618451365
O  O19  1  0.56950000  0.91250000  0.63230000  1.0 -0.690619234
O  O20  1  0.96610000  0.11750000  0.78480000  1.0 -0.7682534345
O  O21  1  0.34520000  0.90020000  0.59910000  1.0 -0.6294051894
O  O22  1  0.69240000  0.00290000  0.79010000  1.0 -0.8078259714
O  O23  1  0.35170000  0.09490000  0.56510000  1.0 -0.6096531637
O  O24  1  0.39520000  0.96370000  0.76730000  1.0 -0.8514683731
O  O25  1  0.20290000  0.07580000  0.45310000  1.0 -0.6662817486
O  O26  1  0.63890000  0.08390000  0.56740000  1.0 -0.7682534345
O  O27  1  0.86540000  0.90180000  0.70910000  1.0 -0.690619234
O  O28  1  0.09240000  0.95220000  0.55030000  1.0 -0.7682534345
O  O29  1  0.94390000  0.11830000  0.62430000  1.0 -0.6997184642
O  O30  1  0.17210000  0.17070000  0.66770000  1.0 -0.6352197118
O  O31  1  0.49160000  0.14340000  0.72520000  1.0 -0.6500461586
O  O32  1  0.71600000  0.16910000  0.73340000  1.0 -0.6758530625
O  O33  1  0.75120000  0.87940000  0.19370000  1.0 -0.6618451365
O  O34  1  0.61390000  0.91150000  0.09880000  1.0 -0.5157887228
