# DDEC6 charges by PACMAN v1.1 (https://github.com/mtap-research/PACMAN-charge/)
data_ZAWCIM_ASR_pacman
_symmetry_space_group_name_H-M   'P 1'
_cell_length_a   10.75700000
_cell_length_b   12.92900000
_cell_length_c   19.00380000
_cell_angle_alpha   90.00000000
_cell_angle_beta   118.01800000
_cell_angle_gamma   90.00000000
_symmetry_Int_Tables_number   1
_chemical_formula_structural   ZnH8C7N6
_chemical_formula_sum   'Zn8 H64 C56 N48'
_cell_volume   2333.23729390
_cell_formula_units_Z   8
loop_
 _symmetry_equiv_pos_site_id
 _symmetry_equiv_pos_as_xyz
  1  'x, y, z'
loop_
 _atom_site_type_symbol
 _atom_site_label
 _atom_site_symmetry_multiplicity
 _atom_site_fract_x
 _atom_site_fract_y
 _atom_site_fract_z
 _atom_site_occupancy
 _atom_site_charge
Zn  Zn1  1  0.88269000  0.71716000  0.60107000  1.0 0.6791802926
Zn  Zn2  1  0.26152000  0.74077000  0.45889000  1.0 0.6791802926
Zn  Zn3  1  0.11731000  0.21716000  0.89893000  1.0 0.6791802926
Zn  Zn4  1  0.73848000  0.24077000  0.04111000  1.0 0.6791802926
Zn  Zn5  1  0.11731000  0.28284000  0.39893000  1.0 0.6791802926
Zn  Zn6  1  0.73848000  0.25923000  0.54111000  1.0 0.6791802926
Zn  Zn7  1  0.88269000  0.78284000  0.10107000  1.0 0.6791802926
Zn  Zn8  1  0.26152000  0.75923000  0.95889000  1.0 0.6791802926
H  H1  1  0.14560000  0.65350000  0.20700000  1.0 0.1616232142
H  H2  1  0.28330000  0.68870000  0.28590000  1.0 0.1676681026
H  H3  1  0.17860000  0.60510000  0.29150000  1.0 0.1676681026
H  H4  1  0.06880000  0.97790000  0.41110000  1.0 0.1616232142
H  H5  1  0.90520000  0.94800000  0.36820000  1.0 0.1616232142
H  H6  1  0.18610000  0.65490000  0.65720000  1.0 0.1616232142
H  H7  1  0.23830000  0.61960000  0.59470000  1.0 0.1616232142
H  H8  1  0.31200000  0.71540000  0.65280000  1.0 0.1676681026
H  H9  1  0.68490000  0.95830000  0.68550000  1.0 0.1676681026
H  H10  1  0.81450000  0.88260000  0.70430000  1.0 0.1522701441
H  H11  1  0.78010000  0.97560000  0.64240000  1.0 0.1522701441
H  H12  1  0.59560000  0.67640000  0.41590000  1.0 0.1616232142
H  H13  1  0.47640000  0.61940000  0.42920000  1.0 0.1522701441
H  H14  1  0.00910000  0.37510000  0.63590000  1.0 0.1522701441
H  H15  1  0.06520000  0.47090000  0.60540000  1.0 0.1676681026
H  H16  1  0.03540000  0.48470000  0.67980000  1.0 0.1616232142
H  H17  1  0.85440000  0.15350000  0.29300000  1.0 0.1616232142
H  H18  1  0.71670000  0.18870000  0.21410000  1.0 0.1676681026
H  H19  1  0.82140000  0.10510000  0.20850000  1.0 0.1676681026
H  H20  1  0.93120000  0.47790000  0.08890000  1.0 0.1616232142
H  H21  1  0.09480000  0.44800000  0.13180000  1.0 0.1676681026
H  H22  1  0.81390000  0.15490000  0.84280000  1.0 0.1616232142
H  H23  1  0.76170000  0.11960000  0.90530000  1.0 0.1616232142
H  H24  1  0.68800000  0.21540000  0.84720000  1.0 0.1676681026
H  H25  1  0.31510000  0.45830000  0.81450000  1.0 0.1676681026
H  H26  1  0.18550000  0.38260000  0.79570000  1.0 0.1522701441
H  H27  1  0.21990000  0.47560000  0.85760000  1.0 0.1522701441
H  H28  1  0.40440000  0.17640000  0.08410000  1.0 0.1616232142
H  H29  1  0.52360000  0.11940000  0.07080000  1.0 0.1522701441
H  H30  1  0.99090000  0.87510000  0.86410000  1.0 0.1522701441
H  H31  1  0.93480000  0.97090000  0.89460000  1.0 0.1676681026
H  H32  1  0.96460000  0.98470000  0.82020000  1.0 0.1616232142
H  H33  1  0.85440000  0.34650000  0.79300000  1.0 0.1616232142
H  H34  1  0.71670000  0.31130000  0.71410000  1.0 0.1676681026
H  H35  1  0.82140000  0.39490000  0.70850000  1.0 0.1676681026
H  H36  1  0.93120000  0.02210000  0.58890000  1.0 0.1616232142
H  H37  1  0.09480000  0.05200000  0.63180000  1.0 0.1616232142
H  H38  1  0.81390000  0.34510000  0.34280000  1.0 0.1616232142
H  H39  1  0.76170000  0.38040000  0.40530000  1.0 0.1616232142
H  H40  1  0.68800000  0.28460000  0.34720000  1.0 0.1676681026
H  H41  1  0.31510000  0.04170000  0.31450000  1.0 0.1676681026
H  H42  1  0.18550000  0.11740000  0.29570000  1.0 0.1522701441
H  H43  1  0.21990000  0.02440000  0.35760000  1.0 0.1522701441
H  H44  1  0.40440000  0.32360000  0.58410000  1.0 0.1616232142
H  H45  1  0.52360000  0.38060000  0.57080000  1.0 0.1522701441
H  H46  1  0.99090000  0.62490000  0.36410000  1.0 0.1522701441
H  H47  1  0.93480000  0.52910000  0.39460000  1.0 0.1676681026
H  H48  1  0.96460000  0.51530000  0.32020000  1.0 0.1616232142
H  H49  1  0.14560000  0.84650000  0.70700000  1.0 0.1616232142
H  H50  1  0.28330000  0.81130000  0.78590000  1.0 0.1676681026
H  H51  1  0.17860000  0.89490000  0.79150000  1.0 0.1676681026
H  H52  1  0.06880000  0.52210000  0.91110000  1.0 0.1616232142
H  H53  1  0.90520000  0.55200000  0.86820000  1.0 0.1616232142
H  H54  1  0.18610000  0.84510000  0.15720000  1.0 0.1616232142
H  H55  1  0.23830000  0.88040000  0.09470000  1.0 0.1616232142
H  H56  1  0.31200000  0.78460000  0.15280000  1.0 0.1676681026
H  H57  1  0.68490000  0.54170000  0.18550000  1.0 0.1676681026
H  H58  1  0.81450000  0.61740000  0.20430000  1.0 0.1522701441
H  H59  1  0.78010000  0.52440000  0.14240000  1.0 0.1522701441
H  H60  1  0.59560000  0.82360000  0.91590000  1.0 0.1616232142
H  H61  1  0.47640000  0.88060000  0.92920000  1.0 0.1522701441
H  H62  1  0.00910000  0.12490000  0.13590000  1.0 0.1522701441
H  H63  1  0.06520000  0.02910000  0.10540000  1.0 0.1676681026
H  H64  1  0.03540000  0.01530000  0.17980000  1.0 0.1616232142
C  C1  1  0.18450000  0.66760000  0.26410000  1.0 -0.5326637791
C  C2  1  0.10240000  0.75250000  0.27640000  1.0 0.3980969622
C  C3  1  0.02130000  0.85860000  0.33040000  1.0 0.3517293281
C  C4  1  0.00180000  0.91930000  0.39260000  1.0 -0.3690061734
C  C5  1  0.02530000  0.85270000  0.46380000  1.0 0.3640388532
C  C6  1  0.12080000  0.74950000  0.56210000  1.0 0.391821435
C  C7  1  0.22270000  0.67900000  0.62160000  1.0 -0.53914717
C  C8  1  0.73910000  0.92360000  0.66290000  1.0 -0.516514437
C  C9  1  0.64390000  0.85400000  0.59640000  1.0 0.3980969622
C  C10  1  0.57520000  0.73540000  0.51020000  1.0 0.3640388532
C  C11  1  0.57300000  0.64820000  0.45700000  1.0 -0.379124956
C  C12  1  0.67150000  0.56460000  0.49920000  1.0 0.3517293281
C  C13  1  0.85700000  0.48080000  0.57350000  1.0 0.391821435
C  C14  1  0.00420000  0.45030000  0.62830000  1.0 -0.53914717
C  C15  1  0.81550000  0.16760000  0.23590000  1.0 -0.5326637791
C  C16  1  0.89760000  0.25250000  0.22360000  1.0 0.3980969622
C  C17  1  0.97870000  0.35860000  0.16960000  1.0 0.3517293281
C  C18  1  0.99820000  0.41930000  0.10740000  1.0 -0.3690061734
C  C19  1  0.97470000  0.35270000  0.03620000  1.0 0.3640388532
C  C20  1  0.87920000  0.24950000  0.93790000  1.0 0.391821435
C  C21  1  0.77730000  0.17900000  0.87840000  1.0 -0.53914717
C  C22  1  0.26090000  0.42360000  0.83710000  1.0 -0.516514437
C  C23  1  0.35610000  0.35400000  0.90360000  1.0 0.3980969622
C  C24  1  0.42480000  0.23540000  0.98980000  1.0 0.3640388532
C  C25  1  0.42700000  0.14820000  0.04300000  1.0 -0.379124956
C  C26  1  0.32850000  0.06460000  0.00080000  1.0 0.3517293281
C  C27  1  0.14300000  0.98080000  0.92650000  1.0 0.391821435
C  C28  1  0.99580000  0.95030000  0.87170000  1.0 -0.53914717
C  C29  1  0.81550000  0.33240000  0.73590000  1.0 -0.5326637791
C  C30  1  0.89760000  0.24750000  0.72360000  1.0 0.3980969622
C  C31  1  0.97870000  0.14140000  0.66960000  1.0 0.3517293281
C  C32  1  0.99820000  0.08070000  0.60740000  1.0 -0.3690061734
C  C33  1  0.97470000  0.14730000  0.53620000  1.0 0.3640388532
C  C34  1  0.87920000  0.25050000  0.43790000  1.0 0.391821435
C  C35  1  0.77730000  0.32100000  0.37840000  1.0 -0.53914717
C  C36  1  0.26090000  0.07640000  0.33710000  1.0 -0.516514437
C  C37  1  0.35610000  0.14600000  0.40360000  1.0 0.3980969622
C  C38  1  0.42480000  0.26460000  0.48980000  1.0 0.3640388532
C  C39  1  0.42700000  0.35180000  0.54300000  1.0 -0.379124956
C  C40  1  0.32850000  0.43540000  0.50080000  1.0 0.3517293281
C  C41  1  0.14300000  0.51920000  0.42650000  1.0 0.391821435
C  C42  1  0.99580000  0.54970000  0.37170000  1.0 -0.53914717
C  C43  1  0.18450000  0.83240000  0.76410000  1.0 -0.5326637791
C  C44  1  0.10240000  0.74750000  0.77640000  1.0 0.3980969622
C  C45  1  0.02130000  0.64140000  0.83040000  1.0 0.3517293281
C  C46  1  0.00180000  0.58070000  0.89260000  1.0 -0.3690061734
C  C47  1  0.02530000  0.64730000  0.96380000  1.0 0.3640388532
C  C48  1  0.12080000  0.75050000  0.06210000  1.0 0.391821435
C  C49  1  0.22270000  0.82100000  0.12160000  1.0 -0.53914717
C  C50  1  0.73910000  0.57640000  0.16290000  1.0 -0.516514437
C  C51  1  0.64390000  0.64600000  0.09640000  1.0 0.3980969622
C  C52  1  0.57520000  0.76460000  0.01020000  1.0 0.3640388532
C  C53  1  0.57300000  0.85180000  0.95700000  1.0 -0.379124956
C  C54  1  0.67150000  0.93540000  0.99920000  1.0 0.3517293281
C  C55  1  0.85700000  0.01920000  0.07350000  1.0 0.391821435
C  C56  1  0.00420000  0.04970000  0.12830000  1.0 -0.53914717
N  N1  1  0.69360000  0.77870000  0.56600000  1.0 -0.4371571259
N  N2  1  0.50600000  0.85650000  0.56440000  1.0 -0.3060664699
N  N3  1  0.45950000  0.77850000  0.50670000  1.0 -0.2928156362
N  N4  1  0.80830000  0.57730000  0.55150000  1.0 -0.4207782612
N  N5  1  0.63220000  0.46640000  0.48820000  1.0 -0.2820166365
N  N6  1  0.75340000  0.41240000  0.53730000  1.0 -0.2721020893
N  N7  1  0.99850000  0.77930000  0.55640000  1.0 -0.2928156362
N  N8  1  0.93340000  0.84740000  0.49130000  1.0 -0.3011513617
N  N9  1  0.14420000  0.79620000  0.50540000  1.0 -0.4371571259
N  N10  1  0.12800000  0.78870000  0.34800000  1.0 -0.4533643888
N  N11  1  0.93860000  0.86840000  0.25410000  1.0 -0.3011513617
N  N12  1  0.99190000  0.79780000  0.21920000  1.0 -0.2820166365
N  N13  1  0.30640000  0.27870000  0.93400000  1.0 -0.4371571259
N  N14  1  0.49400000  0.35650000  0.93560000  1.0 -0.3060664699
N  N15  1  0.54050000  0.27850000  0.99330000  1.0 -0.2928156362
N  N16  1  0.19170000  0.07730000  0.94850000  1.0 -0.4207782612
N  N17  1  0.36780000  0.96640000  0.01180000  1.0 -0.2820166365
N  N18  1  0.24660000  0.91240000  0.96270000  1.0 -0.2721020893
N  N19  1  0.00150000  0.27930000  0.94360000  1.0 -0.2928156362
N  N20  1  0.06660000  0.34740000  0.00870000  1.0 -0.3011513617
N  N21  1  0.85580000  0.29620000  0.99460000  1.0 -0.4371571259
N  N22  1  0.87200000  0.28870000  0.15200000  1.0 -0.4533643888
N  N23  1  0.06140000  0.36840000  0.24590000  1.0 -0.2928156362
N  N24  1  0.00810000  0.29780000  0.28080000  1.0 -0.2820166365
N  N25  1  0.30640000  0.22130000  0.43400000  1.0 -0.4371571259
N  N26  1  0.49400000  0.14350000  0.43560000  1.0 -0.3060664699
N  N27  1  0.54050000  0.22150000  0.49330000  1.0 -0.2928156362
N  N28  1  0.19170000  0.42270000  0.44850000  1.0 -0.4207782612
N  N29  1  0.36780000  0.53360000  0.51180000  1.0 -0.2820166365
N  N30  1  0.24660000  0.58760000  0.46270000  1.0 -0.2721020893
N  N31  1  0.00150000  0.22070000  0.44360000  1.0 -0.2928156362
N  N32  1  0.06660000  0.15260000  0.50870000  1.0 -0.3011513617
N  N33  1  0.85580000  0.20380000  0.49460000  1.0 -0.4371571259
N  N34  1  0.87200000  0.21130000  0.65200000  1.0 -0.4533643888
N  N35  1  0.06140000  0.13160000  0.74590000  1.0 -0.2928156362
N  N36  1  0.00810000  0.20220000  0.78080000  1.0 -0.2820166365
N  N37  1  0.69360000  0.72130000  0.06600000  1.0 -0.4371571259
N  N38  1  0.50600000  0.64350000  0.06440000  1.0 -0.3060664699
N  N39  1  0.45950000  0.72150000  0.00670000  1.0 -0.2928156362
N  N40  1  0.80830000  0.92270000  0.05150000  1.0 -0.4207782612
N  N41  1  0.63220000  0.03360000  0.98820000  1.0 -0.2820166365
N  N42  1  0.75340000  0.08760000  0.03730000  1.0 -0.2721020893
N  N43  1  0.99850000  0.72070000  0.05640000  1.0 -0.2928156362
N  N44  1  0.93340000  0.65260000  0.99130000  1.0 -0.3011513617
N  N45  1  0.14420000  0.70380000  0.00540000  1.0 -0.4371571259
N  N46  1  0.12800000  0.71130000  0.84800000  1.0 -0.4533643888
N  N47  1  0.93860000  0.63160000  0.75410000  1.0 -0.3011513617
N  N48  1  0.99190000  0.70220000  0.71920000  1.0 -0.2820166365
