# DDEC6 charges by PACMAN v1.1 (https://github.com/mtap-research/PACMAN-charge/)
data_ZAXLUH_ASR_pacman
_symmetry_space_group_name_H-M   'P 1'
_cell_length_a   6.29790000
_cell_length_b   7.20480000
_cell_length_c   10.62710000
_cell_angle_alpha   94.46700000
_cell_angle_beta   100.32000000
_cell_angle_gamma   97.74100000
_symmetry_Int_Tables_number   1
_chemical_formula_structural   RbH2(CO2)4
_chemical_formula_sum   'Rb2 H4 C8 O16'
_cell_volume   467.50078456
_cell_formula_units_Z   2
loop_
 _symmetry_equiv_pos_site_id
 _symmetry_equiv_pos_as_xyz
  1  'x, y, z'
loop_
 _atom_site_type_symbol
 _atom_site_label
 _atom_site_symmetry_multiplicity
 _atom_site_fract_x
 _atom_site_fract_y
 _atom_site_fract_z
 _atom_site_occupancy
 _atom_site_charge
Rb  Rb1  1  0.67052000  0.65685000  0.79578000  1.0 0.8700506637
Rb  Rb2  1  0.32948000  0.34315000  0.20422000  1.0 0.8700506637
H  H1  1  0.65716000  0.13789000  0.74647000  1.0 0.3889434884
H  H2  1  0.34284000  0.86211000  0.25353000  1.0 0.3889434884
H  H3  1  0.10282000  0.44050000  0.73505000  1.0 0.3889434884
H  H4  1  0.89718000  0.55950000  0.26495000  1.0 0.3889434884
C  C1  1  0.74603000  0.17446000  0.92790000  1.0 0.4962501774
C  C2  1  0.25397000  0.82554000  0.07210000  1.0 0.4962501774
C  C3  1  0.99887000  0.92430000  0.61850000  1.0 0.7136077235
C  C4  1  0.00113000  0.07570000  0.38150000  1.0 0.7136077235
C  C5  1  0.21656000  0.93380000  0.94932000  1.0 0.4962501774
C  C6  1  0.78344000  0.06620000  0.05068000  1.0 0.4962501774
C  C7  1  0.08554000  0.51136000  0.56354000  1.0 0.4657450865
C  C8  1  0.91446000  0.48864000  0.43646000  1.0 0.4657450865
O  O1  1  0.83138000  0.81806000  0.58333000  1.0 -0.4279501488
O  O2  1  0.16862000  0.18194000  0.41667000  1.0 -0.4279501488
O  O3  1  0.26757000  0.59905000  0.57852000  1.0 -0.4363349726
O  O4  1  0.73243000  0.40095000  0.42148000  1.0 -0.4363349726
O  O5  1  0.99569000  0.41929000  0.65351000  1.0 -0.4894471933
O  O6  1  0.00431000  0.58071000  0.34649000  1.0 -0.4894471933
O  O7  1  0.77324000  0.34623000  0.92883000  1.0 -0.4894471933
O  O8  1  0.22676000  0.65377000  0.07117000  1.0 -0.4842349639
O  O9  1  0.16141000  0.03070000  0.64442000  1.0 -0.3243592133
O  O10  1  0.83859000  0.96930000  0.35558000  1.0 -0.3255929103
O  O11  1  0.14170000  0.82556000  0.84748000  1.0 -0.5823970785
O  O12  1  0.85830000  0.17444000  0.15252000  1.0 -0.5823970785
O  O13  1  0.26223000  0.11226000  0.96866000  1.0 -0.5823970785
O  O14  1  0.73777000  0.88774000  0.03134000  1.0 -0.5823970785
O  O15  1  0.68090000  0.05589000  0.81513000  1.0 -0.4894471933
O  O16  1  0.31910000  0.94411000  0.18487000  1.0 -0.4894471933
