# DDEC6 charges by PACMAN v1.1 (https://github.com/mtap-research/PACMAN-charge/)
data_ZAYJUG_ion_pacman
_symmetry_space_group_name_H-M   'P 1'
_cell_length_a   12.20300000
_cell_length_b   21.71100000
_cell_length_c   22.70900000
_cell_angle_alpha   90.00000000
_cell_angle_beta   91.74000000
_cell_angle_gamma   90.00000000
_symmetry_Int_Tables_number   1
_chemical_formula_structural   Pr2H14W16C10(N2O17)3
_chemical_formula_sum   'Pr8 H56 W64 C40 N24 O204'
_cell_volume   6013.73313520
_cell_formula_units_Z   4
loop_
 _symmetry_equiv_pos_site_id
 _symmetry_equiv_pos_as_xyz
  1  'x, y, z'
loop_
 _atom_site_type_symbol
 _atom_site_label
 _atom_site_symmetry_multiplicity
 _atom_site_fract_x
 _atom_site_fract_y
 _atom_site_fract_z
 _atom_site_occupancy
 _atom_site_charge
Pr  Pr1  1  0.34986000  0.61579000  0.41713000  1.0 2.0661327242
Pr  Pr2  1  0.65014000  0.11579000  0.08287000  1.0 2.0661327242
Pr  Pr3  1  0.65014000  0.38421000  0.58287000  1.0 2.0661327242
Pr  Pr4  1  0.34986000  0.88421000  0.91713000  1.0 2.0648085474
Pr  Pr5  1  0.86573000  0.71301000  0.41597000  1.0 2.0960299967
Pr  Pr6  1  0.13427000  0.21301000  0.08403000  1.0 2.0960299967
Pr  Pr7  1  0.13427000  0.28699000  0.58403000  1.0 2.0960299967
Pr  Pr8  1  0.86573000  0.78699000  0.91597000  1.0 2.0960299967
H  H1  1  0.76790000  0.71440000  0.17140000  1.0 0.1380657255
H  H2  1  0.23210000  0.21440000  0.32860000  1.0 0.1380657255
H  H3  1  0.23210000  0.28560000  0.82860000  1.0 0.1380657255
H  H4  1  0.76790000  0.78560000  0.67140000  1.0 0.1380657255
H  H5  1  0.04320000  0.65980000  0.23860000  1.0 0.1099999422
H  H6  1  0.95680000  0.15980000  0.26140000  1.0 0.1099999422
H  H7  1  0.95680000  0.34020000  0.76140000  1.0 0.1099999422
H  H8  1  0.04320000  0.84020000  0.73860000  1.0 0.1099999422
H  H9  1  0.86650000  0.73000000  0.25560000  1.0 0.1099999422
H  H10  1  0.13350000  0.23000000  0.24440000  1.0 0.1099999422
H  H11  1  0.13350000  0.27000000  0.74440000  1.0 0.1099999422
H  H12  1  0.86650000  0.77000000  0.75560000  1.0 0.1099999422
H  H13  1  0.38310000  0.57500000  0.26190000  1.0 0.0800144001
H  H14  1  0.61690000  0.07500000  0.23810000  1.0 0.0800144001
H  H15  1  0.61690000  0.42500000  0.73810000  1.0 0.0800144001
H  H16  1  0.38310000  0.92500000  0.76190000  1.0 0.0800144001
H  H17  1  0.30160000  0.59060000  0.16750000  1.0 0.1099999422
H  H18  1  0.69840000  0.09060000  0.33250000  1.0 0.1099999422
H  H19  1  0.69840000  0.40940000  0.83250000  1.0 0.1099999422
H  H20  1  0.30160000  0.90940000  0.66750000  1.0 0.1099999422
H  H21  1  0.51250000  0.66680000  0.25870000  1.0 0.100820843
H  H22  1  0.48750000  0.16680000  0.24130000  1.0 0.100820843
H  H23  1  0.48750000  0.33320000  0.74130000  1.0 0.100820843
H  H24  1  0.51250000  0.83320000  0.75870000  1.0 0.100820843
H  H25  1  0.86550000  0.52920000  0.90480000  1.0 0.2893156984
H  H26  1  0.99200000  0.52460000  0.91860000  1.0 0.2714479937
H  H27  1  0.90900000  0.51660000  0.96940000  1.0 0.2577234282
H  H28  1  0.91870000  0.46540000  0.92110000  1.0 0.2803385793
H  H29  1  0.13450000  0.02920000  0.59520000  1.0 0.2893156984
H  H30  1  0.00800000  0.02460000  0.58140000  1.0 0.2714479937
H  H31  1  0.09100000  0.01660000  0.53060000  1.0 0.2577234282
H  H32  1  0.08130000  0.96540000  0.57890000  1.0 0.2803385793
H  H33  1  0.13450000  0.47080000  0.09520000  1.0 0.2893156984
H  H34  1  0.00800000  0.47540000  0.08140000  1.0 0.2714479937
H  H35  1  0.09100000  0.48340000  0.03060000  1.0 0.2577234282
H  H36  1  0.08130000  0.53460000  0.07890000  1.0 0.2803385793
H  H37  1  0.86550000  0.97080000  0.40480000  1.0 0.2893156984
H  H38  1  0.99200000  0.97540000  0.41860000  1.0 0.2714479937
H  H39  1  0.90900000  0.98340000  0.46940000  1.0 0.2577234282
H  H40  1  0.91870000  0.03460000  0.42110000  1.0 0.2803385793
H  H41  1  0.39120000  0.85460000  0.55490000  1.0 0.2893156984
H  H42  1  0.33770000  0.90020000  0.50890000  1.0 0.2893156984
H  H43  1  0.44500000  0.91910000  0.54410000  1.0 0.2961815297
H  H44  1  0.44920000  0.86790000  0.49560000  1.0 0.2893156984
H  H45  1  0.60880000  0.35460000  0.94510000  1.0 0.2893156984
H  H46  1  0.66230000  0.40020000  0.99110000  1.0 0.2893156984
H  H47  1  0.55500000  0.41910000  0.95590000  1.0 0.2961815297
H  H48  1  0.55080000  0.36790000  0.00440000  1.0 0.2893156984
H  H49  1  0.60880000  0.14540000  0.44510000  1.0 0.2893156984
H  H50  1  0.66230000  0.09980000  0.49110000  1.0 0.2893156984
H  H51  1  0.55500000  0.08090000  0.45590000  1.0 0.2961815297
H  H52  1  0.55080000  0.13210000  0.50440000  1.0 0.2803385793
H  H53  1  0.39120000  0.64540000  0.05490000  1.0 0.2893156984
H  H54  1  0.33770000  0.59980000  0.00890000  1.0 0.2893156984
H  H55  1  0.44500000  0.58090000  0.04410000  1.0 0.2961815297
H  H56  1  0.44920000  0.63210000  0.99560000  1.0 0.2893156984
W  W1  1  0.32979000  0.77584000  0.17718000  1.0 2.2532934545
W  W2  1  0.67021000  0.27584000  0.32282000  1.0 2.2532934545
W  W3  1  0.67021000  0.22416000  0.82282000  1.0 2.2532934545
W  W4  1  0.32979000  0.72416000  0.67718000  1.0 2.2532934545
W  W5  1  0.41620000  0.00480000  0.32197000  1.0 2.2557266353
W  W6  1  0.58380000  0.50480000  0.17803000  1.0 2.2557266353
W  W7  1  0.58380000  0.99520000  0.67803000  1.0 2.2557266353
W  W8  1  0.41620000  0.49520000  0.82197000  1.0 2.2557266353
W  W9  1  0.04396000  0.82072000  0.16140000  1.0 2.2783182262
W  W10  1  0.95604000  0.32072000  0.33860000  1.0 2.2783182262
W  W11  1  0.95604000  0.17928000  0.83860000  1.0 2.2783182262
W  W12  1  0.04396000  0.67928000  0.66140000  1.0 2.2783182262
W  W13  1  0.14975000  0.04746000  0.30862000  1.0 2.3581799864
W  W14  1  0.85025000  0.54746000  0.19138000  1.0 2.3581799864
W  W15  1  0.85025000  0.95254000  0.69138000  1.0 2.3581799864
W  W16  1  0.14975000  0.45254000  0.80862000  1.0 2.3581799864
W  W17  1  0.50616000  0.86045000  0.26068000  1.0 2.2290662526
W  W18  1  0.49384000  0.36045000  0.23932000  1.0 2.2290662526
W  W19  1  0.49384000  0.13955000  0.73932000  1.0 2.2290662526
W  W20  1  0.50616000  0.63955000  0.76068000  1.0 2.2290662526
W  W21  1  0.96128000  0.95592000  0.21779000  1.0 2.3410805463
W  W22  1  0.03872000  0.45592000  0.28221000  1.0 2.3410805463
W  W23  1  0.03872000  0.04408000  0.78221000  1.0 2.3410805463
W  W24  1  0.96128000  0.54408000  0.71779000  1.0 2.3410805463
W  W25  1  0.22187000  0.92558000  0.39357000  1.0 2.1379045247
W  W26  1  0.77813000  0.42558000  0.10643000  1.0 2.1379045247
W  W27  1  0.77813000  0.07442000  0.60643000  1.0 2.1379045247
W  W28  1  0.22187000  0.57442000  0.89357000  1.0 2.1379045247
W  W29  1  0.18442000  0.03757000  0.15034000  1.0 2.3263677953
W  W30  1  0.81558000  0.53757000  0.34966000  1.0 2.3263677953
W  W31  1  0.81558000  0.96243000  0.84966000  1.0 2.3245782255
W  W32  1  0.18442000  0.46243000  0.65034000  1.0 2.3245782255
W  W33  1  0.30610000  0.78290000  0.32004000  1.0 1.3963069319
W  W34  1  0.69390000  0.28290000  0.17996000  1.0 1.3963069319
W  W35  1  0.69390000  0.21710000  0.67996000  1.0 1.3928120731
W  W36  1  0.30610000  0.71710000  0.82004000  1.0 1.3963069319
W  W37  1  0.01950000  0.83840000  0.30251000  1.0 1.3532386719
W  W38  1  0.98050000  0.33840000  0.19749000  1.0 1.3532386719
W  W39  1  0.98050000  0.16160000  0.69749000  1.0 1.3532386719
W  W40  1  0.01950000  0.66160000  0.80251000  1.0 1.3532386719
W  W41  1  0.25810000  0.91215000  0.08760000  1.0 1.068489313
W  W42  1  0.74190000  0.41215000  0.41240000  1.0 1.068489313
W  W43  1  0.74190000  0.08785000  0.91240000  1.0 1.0887281298
W  W44  1  0.25810000  0.58785000  0.58760000  1.0 1.0887281298
W  W45  1  0.43909000  0.98979000  0.16164000  1.0 1.334144771
W  W46  1  0.56091000  0.48979000  0.33836000  1.0 1.3368614712
W  W47  1  0.56091000  0.01021000  0.83836000  1.0 1.3368614712
W  W48  1  0.43909000  0.51021000  0.66164000  1.0 1.3368614712
W  W49  1  0.03230000  0.83800000  0.32110000  1.0 1.2020085453
W  W50  1  0.96770000  0.33800000  0.17890000  1.0 1.2020085453
W  W51  1  0.96770000  0.16200000  0.67890000  1.0 1.2020085453
W  W52  1  0.03230000  0.66200000  0.82110000  1.0 1.2086743712
W  W53  1  0.23980000  0.89350000  0.09300000  1.0 0.801899895
W  W54  1  0.76020000  0.39350000  0.40700000  1.0 0.801899895
W  W55  1  0.76020000  0.10650000  0.90700000  1.0 0.801899895
W  W56  1  0.23980000  0.60650000  0.59300000  1.0 0.801899895
W  W57  1  0.44910000  0.98290000  0.18000000  1.0 1.1799927352
W  W58  1  0.55090000  0.48290000  0.32000000  1.0 1.1799927352
W  W59  1  0.55090000  0.01710000  0.82000000  1.0 1.1799927352
W  W60  1  0.44910000  0.51710000  0.68000000  1.0 1.1722620128
W  W61  1  0.28220000  0.78600000  0.33510000  1.0 1.2086743712
W  W62  1  0.71780000  0.28600000  0.16490000  1.0 1.2020085453
W  W63  1  0.71780000  0.21400000  0.66490000  1.0 1.2086743712
W  W64  1  0.28220000  0.71400000  0.83510000  1.0 1.2086743712
C  C1  1  0.65100000  0.68720000  0.31150000  1.0 0.0510977642
C  C2  1  0.34900000  0.18720000  0.18850000  1.0 0.0510977642
C  C3  1  0.34900000  0.31280000  0.68850000  1.0 0.0510977642
C  C4  1  0.65100000  0.81280000  0.81150000  1.0 0.0510977642
C  C5  1  0.60300000  0.67410000  0.37030000  1.0 0.6126051544
C  C6  1  0.39700000  0.17410000  0.12970000  1.0 0.6126051544
C  C7  1  0.39700000  0.32590000  0.62970000  1.0 0.6126051544
C  C8  1  0.60300000  0.82590000  0.87030000  1.0 0.6126051544
C  C9  1  0.10600000  0.64960000  0.35630000  1.0 0.5471514314
C  C10  1  0.89400000  0.14960000  0.14370000  1.0 0.5471514314
C  C11  1  0.89400000  0.35040000  0.64370000  1.0 0.5471514314
C  C12  1  0.10600000  0.85040000  0.85630000  1.0 0.5471514314
C  C13  1  0.16300000  0.63420000  0.29870000  1.0 0.0510977642
C  C14  1  0.83700000  0.13420000  0.20130000  1.0 0.0510977642
C  C15  1  0.83700000  0.36580000  0.70130000  1.0 0.0510977642
C  C16  1  0.16300000  0.86580000  0.79870000  1.0 0.0510977642
C  C17  1  0.73500000  0.70830000  0.20730000  1.0 0.0312462858
C  C18  1  0.26500000  0.20830000  0.29270000  1.0 0.0312462858
C  C19  1  0.26500000  0.29170000  0.79270000  1.0 0.0312462858
C  C20  1  0.73500000  0.79170000  0.70730000  1.0 0.0312462858
C  C21  1  0.11300000  0.64250000  0.24250000  1.0 0.0510977642
C  C22  1  0.88700000  0.14250000  0.25750000  1.0 0.0510977642
C  C23  1  0.88700000  0.35750000  0.75750000  1.0 0.0510977642
C  C24  1  0.11300000  0.85750000  0.74250000  1.0 0.0510977642
C  C25  1  0.79400000  0.71640000  0.25830000  1.0 0.0616202409
C  C26  1  0.20600000  0.21640000  0.24170000  1.0 0.0616202409
C  C27  1  0.20600000  0.28360000  0.74170000  1.0 0.0616202409
C  C28  1  0.79400000  0.78360000  0.75830000  1.0 0.0616202409
C  C29  1  0.31300000  0.59220000  0.25830000  1.0 0.100820843
C  C30  1  0.68700000  0.09220000  0.24170000  1.0 0.100820843
C  C31  1  0.68700000  0.40780000  0.74170000  1.0 0.100820843
C  C32  1  0.31300000  0.90780000  0.75830000  1.0 0.100820843
C  C33  1  0.26400000  0.60140000  0.20110000  1.0 0.0435519068
C  C34  1  0.73600000  0.10140000  0.29890000  1.0 0.0435519068
C  C35  1  0.73600000  0.39860000  0.79890000  1.0 0.0435519068
C  C36  1  0.26400000  0.89860000  0.70110000  1.0 0.0435519068
C  C37  1  0.58500000  0.67970000  0.25780000  1.0 0.0616202409
C  C38  1  0.41500000  0.17970000  0.24220000  1.0 0.0616202409
C  C39  1  0.41500000  0.32030000  0.74220000  1.0 0.0616202409
C  C40  1  0.58500000  0.82030000  0.75780000  1.0 0.0616202409
N  N1  1  0.75590000  0.70610000  0.31230000  1.0 -0.3289832176
N  N2  1  0.24410000  0.20610000  0.18770000  1.0 -0.3289832176
N  N3  1  0.24410000  0.29390000  0.68770000  1.0 -0.3289832176
N  N4  1  0.75590000  0.79390000  0.81230000  1.0 -0.3289832176
N  N5  1  0.26040000  0.60780000  0.30670000  1.0 -0.3289832176
N  N6  1  0.73960000  0.10780000  0.19330000  1.0 -0.3289832176
N  N7  1  0.73960000  0.39220000  0.69330000  1.0 -0.3289832176
N  N8  1  0.26040000  0.89220000  0.80670000  1.0 -0.3289832176
N  N9  1  0.16500000  0.62580000  0.19670000  1.0 -0.0267135818
N  N10  1  0.83500000  0.12580000  0.30330000  1.0 -0.0267135818
N  N11  1  0.83500000  0.37420000  0.80330000  1.0 -0.0267135818
N  N12  1  0.16500000  0.87420000  0.69670000  1.0 -0.0267135818
N  N13  1  0.63200000  0.69190000  0.20830000  1.0 -0.0118213069
N  N14  1  0.36800000  0.19190000  0.29170000  1.0 -0.0118213069
N  N15  1  0.36800000  0.30810000  0.79170000  1.0 -0.0118213069
N  N16  1  0.63200000  0.80810000  0.70830000  1.0 -0.0118213069
N  N17  1  0.92100000  0.50900000  0.92800000  1.0 -0.7256738942
N  N18  1  0.07900000  0.00900000  0.57200000  1.0 -0.7256738942
N  N19  1  0.07900000  0.49100000  0.07200000  1.0 -0.7256738942
N  N20  1  0.92100000  0.99100000  0.42800000  1.0 -0.7244445683
N  N21  1  0.40600000  0.88500000  0.52590000  1.0 -0.7091004651
N  N22  1  0.59400000  0.38500000  0.97410000  1.0 -0.7091004651
N  N23  1  0.59400000  0.11500000  0.47410000  1.0 -0.7091004651
N  N24  1  0.40600000  0.61500000  0.02590000  1.0 -0.7091004651
O  O1  1  0.55280000  0.03000000  0.13970000  1.0 -0.7091004651
O  O2  1  0.44720000  0.53000000  0.36030000  1.0 -0.7091004651
O  O3  1  0.44720000  0.97000000  0.86030000  1.0 -0.7091004651
O  O4  1  0.55280000  0.47000000  0.63970000  1.0 -0.7091004651
O  O5  1  0.63930000  0.84770000  0.26990000  1.0 -0.5492120908
O  O6  1  0.36070000  0.34770000  0.23010000  1.0 -0.5492120908
O  O7  1  0.36070000  0.15230000  0.73010000  1.0 -0.5492120908
O  O8  1  0.63930000  0.65230000  0.76990000  1.0 -0.5492120908
O  O9  1  0.93280000  0.79650000  0.34800000  1.0 -0.6404548527
O  O10  1  0.06720000  0.29650000  0.15200000  1.0 -0.6404548527
O  O11  1  0.06720000  0.20350000  0.65200000  1.0 -0.6404548527
O  O12  1  0.93280000  0.70350000  0.84800000  1.0 -0.6404548527
O  O13  1  0.31410000  0.72320000  0.37220000  1.0 -0.6583486722
O  O14  1  0.68590000  0.22320000  0.12780000  1.0 -0.6583486722
O  O15  1  0.68590000  0.27680000  0.62780000  1.0 -0.6583486722
O  O16  1  0.31410000  0.77680000  0.87220000  1.0 -0.6583486722
O  O17  1  0.14850000  0.10310000  0.11230000  1.0 -0.7905770318
O  O18  1  0.85150000  0.60310000  0.38770000  1.0 -0.7905770318
O  O19  1  0.85150000  0.89690000  0.88770000  1.0 -0.7905770318
O  O20  1  0.14850000  0.39690000  0.61230000  1.0 -0.7905770318
O  O21  1  0.66760000  0.68310000  0.41680000  1.0 -0.6122450721
O  O22  1  0.33240000  0.18310000  0.08320000  1.0 -0.6122450721
O  O23  1  0.33240000  0.31690000  0.58320000  1.0 -0.6122450721
O  O24  1  0.66760000  0.81690000  0.91680000  1.0 -0.6122450721
O  O25  1  0.26340000  0.89280000  0.01360000  1.0 -0.679962063
O  O26  1  0.73660000  0.39280000  0.48640000  1.0 -0.679962063
O  O27  1  0.73660000  0.10720000  0.98640000  1.0 -0.679962063
O  O28  1  0.26340000  0.60720000  0.51360000  1.0 -0.679962063
O  O29  1  0.51800000  0.04580000  0.35410000  1.0 -0.6032730938
O  O30  1  0.48200000  0.54580000  0.14590000  1.0 -0.6032730938
O  O31  1  0.48200000  0.95420000  0.64590000  1.0 -0.6032730938
O  O32  1  0.51800000  0.45420000  0.85410000  1.0 -0.6122450721
O  O33  1  0.33990000  0.05680000  0.14180000  1.0 -0.8199229291
O  O34  1  0.66010000  0.55680000  0.35820000  1.0 -0.8199229291
O  O35  1  0.66010000  0.94320000  0.85820000  1.0 -0.8199229291
O  O36  1  0.33990000  0.44320000  0.64180000  1.0 -0.8199229291
O  O37  1  0.15210000  0.63630000  0.40350000  1.0 -0.5492120908
O  O38  1  0.84790000  0.13630000  0.09650000  1.0 -0.5492120908
O  O39  1  0.84790000  0.36370000  0.59650000  1.0 -0.5492120908
O  O40  1  0.15210000  0.86370000  0.90350000  1.0 -0.5492120908
O  O41  1  0.01250000  0.67540000  0.35130000  1.0 -0.6404548527
O  O42  1  0.98750000  0.17540000  0.14870000  1.0 -0.6404548527
O  O43  1  0.98750000  0.32460000  0.64870000  1.0 -0.6404548527
O  O44  1  0.01250000  0.82460000  0.85130000  1.0 -0.6404548527
O  O45  1  0.96550000  0.77660000  0.11130000  1.0 -0.6204187573
O  O46  1  0.03450000  0.27660000  0.38870000  1.0 -0.6290507497
O  O47  1  0.03450000  0.22340000  0.88870000  1.0 -0.6290507497
O  O48  1  0.96550000  0.72340000  0.61130000  1.0 -0.6204187573
O  O49  1  0.25400000  0.51510000  0.42180000  1.0 -0.2713896732
O  O50  1  0.74600000  0.01510000  0.07820000  1.0 -0.2630261184
O  O51  1  0.74600000  0.48490000  0.57820000  1.0 -0.2713896732
O  O52  1  0.25400000  0.98490000  0.92180000  1.0 -0.2713896732
O  O53  1  0.75020000  0.80440000  0.42540000  1.0 -0.4480312766
O  O54  1  0.24980000  0.30440000  0.07460000  1.0 -0.4390055666
O  O55  1  0.24980000  0.19560000  0.57460000  1.0 -0.4390055666
O  O56  1  0.75020000  0.69560000  0.92540000  1.0 -0.4390055666
O  O57  1  0.29200000  0.85370000  0.37240000  1.0 -0.6702647636
O  O58  1  0.70800000  0.35370000  0.12760000  1.0 -0.6702647636
O  O59  1  0.70800000  0.14630000  0.62760000  1.0 -0.6702647636
O  O60  1  0.29200000  0.64630000  0.87240000  1.0 -0.679962063
O  O61  1  0.50430000  0.65750000  0.37290000  1.0 -0.6476312153
O  O62  1  0.49570000  0.15750000  0.12710000  1.0 -0.6476312153
O  O63  1  0.49570000  0.34250000  0.62710000  1.0 -0.6476312153
O  O64  1  0.50430000  0.84250000  0.87290000  1.0 -0.6476312153
O  O65  1  0.18620000  0.06430000  0.22820000  1.0 -0.8494186085
O  O66  1  0.81380000  0.56430000  0.27180000  1.0 -0.8494186085
O  O67  1  0.81380000  0.93570000  0.77180000  1.0 -0.8494186085
O  O68  1  0.18620000  0.43570000  0.72820000  1.0 -0.8494186085
O  O69  1  0.41450000  0.70450000  0.48460000  1.0 -0.226625537
O  O70  1  0.58550000  0.20450000  0.01540000  1.0 -0.226625537
O  O71  1  0.58550000  0.29550000  0.51540000  1.0 -0.2216975839
O  O72  1  0.41450000  0.79550000  0.98460000  1.0 -0.226625537
O  O73  1  0.05050000  0.99600000  0.16450000  1.0 -0.8441923858
O  O74  1  0.94950000  0.49600000  0.33550000  1.0 -0.8441923858
O  O75  1  0.94950000  0.00400000  0.83550000  1.0 -0.8441923858
O  O76  1  0.05050000  0.50400000  0.66450000  1.0 -0.8441923858
O  O77  1  0.00030000  0.65110000  0.48270000  1.0 0.0081384678
O  O78  1  0.99970000  0.15110000  0.01730000  1.0 0.0081384678
O  O79  1  0.99970000  0.34890000  0.51730000  1.0 0.0081384678
O  O80  1  0.00030000  0.84890000  0.98270000  1.0 0.0188128127
O  O81  1  0.18960000  0.99010000  0.07430000  1.0 -0.7589797856
O  O82  1  0.81040000  0.49010000  0.42570000  1.0 -0.7589797856
O  O83  1  0.81040000  0.00990000  0.92570000  1.0 -0.7589797856
O  O84  1  0.18960000  0.50990000  0.57430000  1.0 -0.7589797856
O  O85  1  0.91900000  0.89930000  0.27960000  1.0 -0.7589797856
O  O86  1  0.08100000  0.39930000  0.22040000  1.0 -0.7659734886
O  O87  1  0.08100000  0.10070000  0.72040000  1.0 -0.7659734886
O  O88  1  0.91900000  0.60070000  0.77960000  1.0 -0.7659734886
O  O89  1  0.48040000  0.92740000  0.31170000  1.0 -0.8494186085
O  O90  1  0.51960000  0.42740000  0.18830000  1.0 -0.8494186085
O  O91  1  0.51960000  0.07260000  0.68830000  1.0 -0.8494186085
O  O92  1  0.48040000  0.57260000  0.81170000  1.0 -0.8624063533
O  O93  1  0.99300000  0.78410000  0.46830000  1.0 -0.4390055666
O  O94  1  0.00700000  0.28410000  0.03170000  1.0 -0.4390055666
O  O95  1  0.00700000  0.21590000  0.53170000  1.0 -0.4390055666
O  O96  1  0.99300000  0.71590000  0.96830000  1.0 -0.4390055666
O  O97  1  0.32500000  0.84700000  0.24550000  1.0 -0.9259704352
O  O98  1  0.67500000  0.34700000  0.25450000  1.0 -0.9259704352
O  O99  1  0.67500000  0.15300000  0.75450000  1.0 -0.9259704352
O  O100  1  0.32500000  0.65300000  0.74550000  1.0 -0.9259704352
O  O101  1  0.32980000  0.83910000  0.12250000  1.0 -0.6702647636
O  O102  1  0.67020000  0.33910000  0.37750000  1.0 -0.6702647636
O  O103  1  0.67020000  0.16090000  0.87750000  1.0 -0.6702647636
O  O104  1  0.32980000  0.66090000  0.62250000  1.0 -0.6702647636
O  O105  1  0.25100000  0.96120000  0.29900000  1.0 -0.8677738581
O  O106  1  0.74900000  0.46120000  0.20100000  1.0 -0.8677738581
O  O107  1  0.74900000  0.03880000  0.70100000  1.0 -0.8677738581
O  O108  1  0.25100000  0.53880000  0.79900000  1.0 -0.8677738581
O  O109  1  0.46080000  0.80260000  0.31740000  1.0 -0.7905770318
O  O110  1  0.53920000  0.30260000  0.18260000  1.0 -0.7905770318
O  O111  1  0.53920000  0.19740000  0.68260000  1.0 -0.7905770318
O  O112  1  0.46080000  0.69740000  0.81740000  1.0 -0.7905770318
O  O113  1  0.12330000  0.87350000  0.10730000  1.0 -0.6290507497
O  O114  1  0.87670000  0.37350000  0.39270000  1.0 -0.6290507497
O  O115  1  0.87670000  0.12650000  0.89270000  1.0 -0.6290507497
O  O116  1  0.12330000  0.62650000  0.60730000  1.0 -0.6290507497
O  O117  1  0.93510000  0.88950000  0.15910000  1.0 -0.8624063533
O  O118  1  0.06490000  0.38950000  0.34090000  1.0 -0.8677738581
O  O119  1  0.06490000  0.11050000  0.84090000  1.0 -0.8624063533
O  O120  1  0.93510000  0.61050000  0.65910000  1.0 -0.8624063533
O  O121  1  0.48600000  0.56960000  0.48310000  1.0 -0.1927833185
O  O122  1  0.51400000  0.06960000  0.01690000  1.0 -0.1927833185
O  O123  1  0.51400000  0.43040000  0.51690000  1.0 -0.1927833185
O  O124  1  0.48600000  0.93040000  0.98310000  1.0 -0.1927833185
O  O125  1  0.40600000  0.95200000  0.08910000  1.0 -0.7030113191
O  O126  1  0.59400000  0.45200000  0.41090000  1.0 -0.7030113191
O  O127  1  0.59400000  0.04800000  0.91090000  1.0 -0.7030113191
O  O128  1  0.40600000  0.54800000  0.58910000  1.0 -0.7030113191
O  O129  1  0.14200000  0.00390000  0.37920000  1.0 -0.8441923858
O  O130  1  0.85800000  0.50390000  0.12080000  1.0 -0.8441923858
O  O131  1  0.85800000  0.99610000  0.62080000  1.0 -0.8441923858
O  O132  1  0.14200000  0.49610000  0.87920000  1.0 -0.8441923858
O  O133  1  0.27540000  0.95420000  0.17050000  1.0 -0.8199229291
O  O134  1  0.72460000  0.45420000  0.32950000  1.0 -0.8199229291
O  O135  1  0.72460000  0.04580000  0.82950000  1.0 -0.8199229291
O  O136  1  0.27540000  0.54580000  0.67050000  1.0 -0.8199229291
O  O137  1  0.09310000  0.88950000  0.35740000  1.0 -0.6476312153
O  O138  1  0.90690000  0.38950000  0.14260000  1.0 -0.6476312153
O  O139  1  0.90690000  0.11050000  0.64260000  1.0 -0.6476312153
O  O140  1  0.09310000  0.61050000  0.85740000  1.0 -0.6476312153
O  O141  1  0.48000000  0.79670000  0.19910000  1.0 -0.8494186085
O  O142  1  0.52000000  0.29670000  0.30090000  1.0 -0.8494186085
O  O143  1  0.52000000  0.20330000  0.80090000  1.0 -0.8494186085
O  O144  1  0.48000000  0.70330000  0.69910000  1.0 -0.8494186085
O  O145  1  0.15100000  0.78990000  0.30940000  1.0 -0.6290507497
O  O146  1  0.84900000  0.28990000  0.19060000  1.0 -0.6290507497
O  O147  1  0.84900000  0.21010000  0.69060000  1.0 -0.6290507497
O  O148  1  0.15100000  0.71010000  0.80940000  1.0 -0.6290507497
O  O149  1  0.32020000  0.73200000  0.25320000  1.0 -0.8199229291
O  O150  1  0.67980000  0.23200000  0.24680000  1.0 -0.8199229291
O  O151  1  0.67980000  0.26800000  0.74680000  1.0 -0.8199229291
O  O152  1  0.32020000  0.76800000  0.75320000  1.0 -0.8199229291
O  O153  1  0.17320000  0.77670000  0.17110000  1.0 -0.8624063533
O  O154  1  0.82680000  0.27670000  0.32890000  1.0 -0.8677738581
O  O155  1  0.82680000  0.22330000  0.82890000  1.0 -0.8624063533
O  O156  1  0.17320000  0.72330000  0.67110000  1.0 -0.8677738581
O  O157  1  0.20650000  0.91980000  0.46710000  1.0 -0.6476312153
O  O158  1  0.79350000  0.41980000  0.03290000  1.0 -0.6404548527
O  O159  1  0.79350000  0.08020000  0.53290000  1.0 -0.6404548527
O  O160  1  0.20650000  0.58020000  0.96710000  1.0 -0.6476312153
O  O161  1  0.50070000  0.91800000  0.19680000  1.0 -0.6476312153
O  O162  1  0.49930000  0.41800000  0.30320000  1.0 -0.6476312153
O  O163  1  0.49930000  0.08200000  0.80320000  1.0 -0.6476312153
O  O164  1  0.50070000  0.58200000  0.69680000  1.0 -0.6476312153
O  O165  1  0.43900000  0.02010000  0.24340000  1.0 -0.6583486722
O  O166  1  0.56100000  0.52010000  0.25660000  1.0 -0.6583486722
O  O167  1  0.56100000  0.97990000  0.75660000  1.0 -0.6583486722
O  O168  1  0.43900000  0.47990000  0.74340000  1.0 -0.6583486722
O  O169  1  0.09400000  0.11770000  0.33020000  1.0 -0.7091004651
O  O170  1  0.90600000  0.61770000  0.16980000  1.0 -0.7091004651
O  O171  1  0.90600000  0.88230000  0.66980000  1.0 -0.7091004651
O  O172  1  0.09400000  0.38230000  0.83020000  1.0 -0.7091004651
O  O173  1  0.35800000  0.96740000  0.39510000  1.0 -0.8020094833
O  O174  1  0.64200000  0.46740000  0.10490000  1.0 -0.8020094833
O  O175  1  0.64200000  0.03260000  0.60490000  1.0 -0.8020094833
O  O176  1  0.35800000  0.53260000  0.89510000  1.0 -0.8050531746
O  O177  1  0.10100000  0.88660000  0.22930000  1.0 -0.9370385708
O  O178  1  0.89900000  0.38660000  0.27070000  1.0 -0.9370385708
O  O179  1  0.89900000  0.11340000  0.77070000  1.0 -0.9370385708
O  O180  1  0.10100000  0.61340000  0.72930000  1.0 -0.9370385708
O  O181  1  0.03140000  0.00530000  0.27720000  1.0 -0.8494186085
O  O182  1  0.96860000  0.50530000  0.22280000  1.0 -0.8494186085
O  O183  1  0.96860000  0.99470000  0.72280000  1.0 -0.8494186085
O  O184  1  0.03140000  0.49470000  0.77720000  1.0 -0.8494186085
O  O185  1  0.83410000  0.98840000  0.20780000  1.0 -0.6122450721
O  O186  1  0.16590000  0.48840000  0.29220000  1.0 -0.6122450721
O  O187  1  0.16590000  0.01160000  0.79220000  1.0 -0.6122450721
O  O188  1  0.83410000  0.51160000  0.70780000  1.0 -0.6122450721
O  O189  1  0.99000000  0.79420000  0.23220000  1.0 -0.7827086599
O  O190  1  0.01000000  0.29420000  0.26780000  1.0 -0.7827086599
O  O191  1  0.01000000  0.20580000  0.76780000  1.0 -0.7827086599
O  O192  1  0.99000000  0.70580000  0.73220000  1.0 -0.7827086599
O  O193  1  0.30270000  0.06790000  0.32610000  1.0 -0.8677738581
O  O194  1  0.69730000  0.56790000  0.17390000  1.0 -0.8677738581
O  O195  1  0.69730000  0.93210000  0.67390000  1.0 -0.8677738581
O  O196  1  0.30270000  0.43210000  0.82610000  1.0 -0.8677738581
O  O197  1  0.35570000  0.71200000  0.13710000  1.0 -0.6122450721
O  O198  1  0.64430000  0.21200000  0.36290000  1.0 -0.6204187573
O  O199  1  0.64430000  0.28800000  0.86290000  1.0 -0.6122450721
O  O200  1  0.35570000  0.78800000  0.63710000  1.0 -0.6204187573
O  O201  1  0.79840000  0.70670000  0.51920000  1.0 -0.4068205954
O  O202  1  0.20160000  0.20670000  0.98080000  1.0 -0.4068205954
O  O203  1  0.20160000  0.29330000  0.48080000  1.0 -0.4068205954
O  O204  1  0.79840000  0.79330000  0.01920000  1.0 -0.4036076964
