# DDEC6 charges by PACMAN v1.1 (https://github.com/mtap-research/PACMAN-charge/)
data_ZAYJUI_ASR_pacman
_symmetry_space_group_name_H-M   'P 1'
_cell_length_a   10.51700000
_cell_length_b   11.14670000
_cell_length_c   14.81200000
_cell_angle_alpha   110.03300000
_cell_angle_beta   106.18800000
_cell_angle_gamma   95.71500000
_symmetry_Int_Tables_number   1
_chemical_formula_structural   DyH10C16O13
_chemical_formula_sum   'Dy2 H20 C32 O26'
_cell_volume   1529.60861126
_cell_formula_units_Z   2
loop_
 _symmetry_equiv_pos_site_id
 _symmetry_equiv_pos_as_xyz
  1  'x, y, z'
loop_
 _atom_site_type_symbol
 _atom_site_label
 _atom_site_symmetry_multiplicity
 _atom_site_fract_x
 _atom_site_fract_y
 _atom_site_fract_z
 _atom_site_occupancy
 _atom_site_charge
Dy  Dy1  1  0.44955000  0.91609000  0.34458000  1.0 2.0635172706
Dy  Dy2  1  0.55045000  0.08391000  0.65542000  1.0 2.0635172706
H  H1  1  0.94665000  0.04117000  0.70606000  1.0 0.3692910653
H  H2  1  0.55761000  0.77328000  0.67887000  1.0 0.3568236064
H  H3  1  0.27653000  0.41209000  0.04951000  1.0 0.3515315037
H  H4  1  0.79540000  0.97725000  0.37922000  1.0 0.1482948195
H  H5  1  0.41573000  0.52937000  0.34892000  1.0 0.1575614791
H  H6  1  0.03443000  0.70935000  0.11876000  1.0 0.1482948195
H  H7  1  0.71498000  0.95384000  0.17395000  1.0 0.2866085153
H  H8  1  0.30073000  0.01247000  0.03686000  1.0 0.1337181609
H  H9  1  0.68981000  0.98366000  0.11599000  1.0 0.1337181609
H  H10  1  0.19940000  0.96967000  0.98635000  1.0 0.2806735616
H  H11  1  0.05335000  0.95883000  0.29394000  1.0 0.3692910653
H  H12  1  0.44239000  0.22672000  0.32113000  1.0 0.3568236064
H  H13  1  0.72347000  0.58791000  0.95049000  1.0 0.3515315037
H  H14  1  0.20460000  0.02275000  0.62078000  1.0 0.1482948195
H  H15  1  0.58427000  0.47063000  0.65108000  1.0 0.1575614791
H  H16  1  0.96557000  0.29065000  0.88124000  1.0 0.1482948195
H  H17  1  0.28502000  0.04616000  0.82605000  1.0 0.2866085153
H  H18  1  0.69927000  0.98753000  0.96314000  1.0 0.1337181609
H  H19  1  0.31019000  0.01634000  0.88401000  1.0 0.1337181609
H  H20  1  0.80060000  0.03033000  0.01365000  1.0 0.2806735616
C  C1  1  0.75590000  0.01000000  0.55251000  1.0 0.6442947965
C  C2  1  0.88230000  0.00490000  0.52617000  1.0 -0.1294400096
C  C3  1  0.00740000  0.01980000  0.59978000  1.0 0.2603349518
C  C4  1  0.87780000  0.98610000  0.42779000  1.0 -0.1760042328
C  C5  1  0.46840000  0.75630000  0.50135000  1.0 0.6598483901
C  C6  1  0.48310000  0.62370000  0.50168000  1.0 -0.1294400096
C  C7  1  0.53430000  0.60550000  0.59353000  1.0 0.2603349518
C  C8  1  0.44960000  0.51760000  0.40966000  1.0 -0.1609389391
C  C9  1  0.26280000  0.62610000  0.15680000  1.0 0.6269295495
C  C10  1  0.12580000  0.55970000  0.07630000  1.0 -0.1175542902
C  C11  1  0.10470000  0.43250000  0.00420000  1.0 0.2520250808
C  C12  1  0.02060000  0.62510000  0.07100000  1.0 -0.1609389391
C  C13  1  0.48500000  0.98990000  0.18851000  1.0 0.5671654027
C  C14  1  0.49500000  0.99790000  0.09210000  1.0 -0.1760042328
C  C15  1  0.61440000  0.98950000  0.06940000  1.0 0.0583244395
C  C16  1  0.38130000  0.00870000  0.02270000  1.0 0.0685704481
C  C17  1  0.24410000  0.99000000  0.44749000  1.0 0.6442947965
C  C18  1  0.11770000  0.99510000  0.47383000  1.0 -0.1294400096
C  C19  1  0.99260000  0.98020000  0.40022000  1.0 0.2603349518
C  C20  1  0.12220000  0.01390000  0.57221000  1.0 -0.1760042328
C  C21  1  0.53160000  0.24370000  0.49865000  1.0 0.6598483901
C  C22  1  0.51690000  0.37630000  0.49832000  1.0 -0.1294400096
C  C23  1  0.46570000  0.39450000  0.40647000  1.0 0.2603349518
C  C24  1  0.55040000  0.48240000  0.59034000  1.0 -0.1609389391
C  C25  1  0.73720000  0.37390000  0.84320000  1.0 0.6269295495
C  C26  1  0.87420000  0.44030000  0.92370000  1.0 -0.1175542902
C  C27  1  0.89530000  0.56750000  0.99580000  1.0 0.2520250808
C  C28  1  0.97940000  0.37490000  0.92900000  1.0 -0.1609389391
C  C29  1  0.51500000  0.01010000  0.81149000  1.0 0.5671654027
C  C30  1  0.50500000  0.00210000  0.90790000  1.0 -0.1739641745
C  C31  1  0.38560000  0.01050000  0.93060000  1.0 0.0583244395
C  C32  1  0.61870000  0.99130000  0.97730000  1.0 0.0685704481
O  O1  1  0.64360000  0.98590000  0.48479000  1.0 -0.6981696207
O  O2  1  0.76552000  0.04178000  0.64504000  1.0 -0.5905853827
O  O3  1  0.02100000  0.04080000  0.69859000  1.0 -0.4414192934
O  O4  1  0.41851000  0.76528000  0.41782000  1.0 -0.6263733525
O  O5  1  0.51028000  0.85109000  0.58732000  1.0 -0.6475152392
O  O6  1  0.56780000  0.70496000  0.68648000  1.0 -0.4414192934
O  O7  1  0.28170000  0.74379000  0.21081000  1.0 -0.6246972699
O  O8  1  0.35100000  0.55770000  0.16425000  1.0 -0.4989421684
O  O9  1  0.20540000  0.36420000  0.00650000  1.0 -0.4414192934
O  O10  1  0.37330000  0.98730000  0.20344000  1.0 -0.5260126013
O  O11  1  0.58870000  0.98250000  0.25303000  1.0 -0.5905853827
O  O12  1  0.73250000  0.98480000  0.13480000  1.0 -0.3348598499
O  O13  1  0.25970000  0.02340000  0.03680000  1.0 -0.3214328904
O  O14  1  0.35640000  0.01410000  0.51521000  1.0 -0.6981696207
O  O15  1  0.23448000  0.95822000  0.35496000  1.0 -0.5905853827
O  O16  1  0.97900000  0.95920000  0.30141000  1.0 -0.4414192934
O  O17  1  0.58149000  0.23472000  0.58218000  1.0 -0.6263733525
O  O18  1  0.48972000  0.14891000  0.41268000  1.0 -0.6475152392
O  O19  1  0.43220000  0.29504000  0.31352000  1.0 -0.4333488662
O  O20  1  0.71830000  0.25621000  0.78919000  1.0 -0.6246972699
O  O21  1  0.64900000  0.44230000  0.83575000  1.0 -0.4989421684
O  O22  1  0.79460000  0.63580000  0.99350000  1.0 -0.4414192934
O  O23  1  0.62670000  0.01270000  0.79656000  1.0 -0.5243404526
O  O24  1  0.41130000  0.01750000  0.74697000  1.0 -0.5905853827
O  O25  1  0.26750000  0.01520000  0.86520000  1.0 -0.3348598499
O  O26  1  0.74030000  0.97660000  0.96320000  1.0 -0.3214328904
