# DDEC6 charges by PACMAN v1.1 (https://github.com/mtap-research/PACMAN-charge/)
data_ZAYKAN_ion_pacman
_symmetry_space_group_name_H-M   'P 1'
_cell_length_a   12.24900000
_cell_length_b   21.73900000
_cell_length_c   22.72200000
_cell_angle_alpha   90.00000000
_cell_angle_beta   91.67000000
_cell_angle_gamma   90.00000000
_symmetry_Int_Tables_number   1
_chemical_formula_structural   Nd2H14W16C10(N2O17)3
_chemical_formula_sum   'Nd8 H56 W64 C40 N24 O204'
_cell_volume   6047.86724695
_cell_formula_units_Z   4
loop_
 _symmetry_equiv_pos_site_id
 _symmetry_equiv_pos_as_xyz
  1  'x, y, z'
loop_
 _atom_site_type_symbol
 _atom_site_label
 _atom_site_symmetry_multiplicity
 _atom_site_fract_x
 _atom_site_fract_y
 _atom_site_fract_z
 _atom_site_occupancy
 _atom_site_charge
Nd  Nd1  1  0.13255000  0.71081000  0.58648000  1.0 2.0324887846
Nd  Nd2  1  0.86745000  0.21081000  0.91352000  1.0 2.0324887846
Nd  Nd3  1  0.86745000  0.28919000  0.41352000  1.0 2.0324887846
Nd  Nd4  1  0.13255000  0.78919000  0.08648000  1.0 2.0324887846
Nd  Nd5  1  0.64758000  0.61566000  0.58435000  1.0 2.0506778572
Nd  Nd6  1  0.35242000  0.11566000  0.91565000  1.0 2.0506778572
Nd  Nd7  1  0.35242000  0.38434000  0.41565000  1.0 2.0506778572
Nd  Nd8  1  0.64758000  0.88434000  0.08435000  1.0 2.0506778572
H  H1  1  0.48640000  0.66620000  0.73830000  1.0 0.1208296351
H  H2  1  0.51360000  0.16620000  0.76170000  1.0 0.1208296351
H  H3  1  0.51360000  0.33380000  0.26170000  1.0 0.1208296351
H  H4  1  0.48640000  0.83380000  0.23830000  1.0 0.1208296351
H  H5  1  0.22510000  0.71200000  0.83140000  1.0 0.1508121479
H  H6  1  0.77490000  0.21200000  0.66860000  1.0 0.1508121479
H  H7  1  0.77490000  0.28800000  0.16860000  1.0 0.1508121479
H  H8  1  0.22510000  0.78800000  0.33140000  1.0 0.1508121479
H  H9  1  0.12950000  0.72920000  0.74660000  1.0 0.1208296351
H  H10  1  0.87050000  0.22920000  0.75340000  1.0 0.1208296351
H  H11  1  0.87050000  0.27080000  0.25340000  1.0 0.1208296351
H  H12  1  0.12950000  0.77080000  0.24660000  1.0 0.1208296351
H  H13  1  0.95620000  0.65590000  0.75910000  1.0 0.1317096714
H  H14  1  0.04380000  0.15590000  0.74090000  1.0 0.1317096714
H  H15  1  0.04380000  0.34410000  0.24090000  1.0 0.1317096714
H  H16  1  0.95620000  0.84410000  0.25910000  1.0 0.1317096714
H  H17  1  0.70200000  0.57840000  0.83130000  1.0 0.1317096714
H  H18  1  0.29800000  0.07840000  0.66870000  1.0 0.1317096714
H  H19  1  0.29800000  0.42160000  0.16870000  1.0 0.1317096714
H  H20  1  0.70200000  0.92160000  0.33130000  1.0 0.1317096714
H  H21  1  0.61250000  0.57530000  0.74000000  1.0 0.0818976079
H  H22  1  0.38750000  0.07530000  0.76000000  1.0 0.0818976079
H  H23  1  0.38750000  0.42470000  0.26000000  1.0 0.0818976079
H  H24  1  0.61250000  0.92470000  0.24000000  1.0 0.0818976079
H  H25  1  0.27310000  0.89270000  0.03040000  1.0 0.2733535185
H  H26  1  0.37800000  0.91110000  0.99670000  1.0 0.3774337981
H  H27  1  0.26230000  0.92980000  0.97140000  1.0 0.3149081383
H  H28  1  0.31010000  0.96170000  0.02840000  1.0 0.2928164218
H  H29  1  0.72690000  0.39270000  0.46960000  1.0 0.2780281518
H  H30  1  0.62200000  0.41110000  0.50330000  1.0 0.3774337981
H  H31  1  0.73770000  0.42980000  0.52860000  1.0 0.3149081383
H  H32  1  0.68990000  0.46170000  0.47160000  1.0 0.2928164218
H  H33  1  0.72690000  0.10730000  0.96960000  1.0 0.2733535185
H  H34  1  0.62200000  0.08890000  0.00330000  1.0 0.3774337981
H  H35  1  0.73770000  0.07020000  0.02860000  1.0 0.3149081383
H  H36  1  0.68990000  0.03830000  0.97160000  1.0 0.2928164218
H  H37  1  0.27310000  0.60730000  0.53040000  1.0 0.2733535185
H  H38  1  0.37800000  0.58890000  0.49670000  1.0 0.3774337981
H  H39  1  0.26230000  0.57020000  0.47140000  1.0 0.3153636668
H  H40  1  0.31010000  0.53830000  0.52840000  1.0 0.2928164218
H  H41  1  0.83270000  0.83360000  0.40940000  1.0 0.2780281518
H  H42  1  0.95860000  0.83070000  0.42340000  1.0 0.2979626011
H  H43  1  0.91230000  0.87730000  0.37630000  1.0 0.2539085065
H  H44  1  0.89070000  0.88780000  0.44320000  1.0 0.2979626011
H  H45  1  0.16730000  0.33360000  0.09060000  1.0 0.2780281518
H  H46  1  0.04140000  0.33070000  0.07660000  1.0 0.2979626011
H  H47  1  0.08770000  0.37730000  0.12370000  1.0 0.2539085065
H  H48  1  0.10930000  0.38780000  0.05680000  1.0 0.2979626011
H  H49  1  0.16730000  0.16640000  0.59060000  1.0 0.2780281518
H  H50  1  0.04140000  0.16930000  0.57660000  1.0 0.2979626011
H  H51  1  0.08770000  0.12270000  0.62370000  1.0 0.2539085065
H  H52  1  0.10930000  0.11220000  0.55680000  1.0 0.2979626011
H  H53  1  0.83270000  0.66640000  0.90940000  1.0 0.2780281518
H  H54  1  0.95860000  0.66930000  0.92340000  1.0 0.2979626011
H  H55  1  0.91230000  0.62270000  0.87630000  1.0 0.2539085065
H  H56  1  0.89070000  0.61220000  0.94320000  1.0 0.2979626011
W  W1  1  0.81691000  0.03463000  0.85203000  1.0 2.2990708365
W  W2  1  0.18309000  0.53463000  0.64797000  1.0 2.2948935841
W  W3  1  0.18309000  0.96537000  0.14797000  1.0 2.2990708365
W  W4  1  0.81691000  0.46537000  0.35203000  1.0 2.2990708365
W  W5  1  0.67295000  0.77251000  0.82525000  1.0 2.2419913624
W  W6  1  0.32705000  0.27251000  0.67475000  1.0 2.2419913624
W  W7  1  0.32705000  0.22749000  0.17475000  1.0 2.2419913624
W  W8  1  0.67295000  0.72749000  0.32525000  1.0 2.2419913624
W  W9  1  0.49457000  0.85701000  0.74490000  1.0 2.2627380107
W  W10  1  0.50543000  0.35701000  0.75510000  1.0 2.2627380107
W  W11  1  0.50543000  0.14299000  0.25510000  1.0 2.2627380107
W  W12  1  0.49457000  0.64299000  0.24490000  1.0 2.2627380107
W  W13  1  0.03554000  0.95378000  0.78151000  1.0 2.3569238995
W  W14  1  0.96446000  0.45378000  0.71849000  1.0 2.354884467
W  W15  1  0.96446000  0.04622000  0.21849000  1.0 2.354884467
W  W16  1  0.03554000  0.54622000  0.28151000  1.0 2.3569238995
W  W17  1  0.77891000  0.92126000  0.60917000  1.0 2.150175096
W  W18  1  0.22109000  0.42126000  0.89083000  1.0 2.150175096
W  W19  1  0.22109000  0.07874000  0.39083000  1.0 2.1558714722
W  W20  1  0.77891000  0.57874000  0.10917000  1.0 2.150175096
W  W21  1  0.84446000  0.04462000  0.69370000  1.0 2.3742570494
W  W22  1  0.15554000  0.54462000  0.80630000  1.0 2.3742570494
W  W23  1  0.15554000  0.95538000  0.30630000  1.0 2.3742570494
W  W24  1  0.84446000  0.45538000  0.19370000  1.0 2.3742570494
W  W25  1  0.95450000  0.82024000  0.84242000  1.0 2.2215859507
W  W26  1  0.04550000  0.32024000  0.65758000  1.0 2.2215859507
W  W27  1  0.04550000  0.17976000  0.15758000  1.0 2.2215859507
W  W28  1  0.95450000  0.67976000  0.34242000  1.0 2.2215859507
W  W29  1  0.58100000  0.99919000  0.67832000  1.0 2.3138662193
W  W30  1  0.41900000  0.49919000  0.82168000  1.0 2.3138662193
W  W31  1  0.41900000  0.00081000  0.32168000  1.0 2.3138662193
W  W32  1  0.58100000  0.50081000  0.17832000  1.0 2.3138662193
W  W33  1  0.97483000  0.83279000  0.69919000  1.0 0.9341537271
W  W34  1  0.02517000  0.33279000  0.80081000  1.0 0.9505368386
W  W35  1  0.02517000  0.16721000  0.30081000  1.0 0.9505368386
W  W36  1  0.97483000  0.66721000  0.19919000  1.0 0.9341537271
W  W37  1  0.73913000  0.90848000  0.91374000  1.0 1.0776616548
W  W38  1  0.26087000  0.40848000  0.58626000  1.0 1.0776616548
W  W39  1  0.26087000  0.09152000  0.08626000  1.0 1.0776616548
W  W40  1  0.73913000  0.59152000  0.41374000  1.0 1.0776616548
W  W41  1  0.69218000  0.78032000  0.68215000  1.0 1.1208678498
W  W42  1  0.30782000  0.28032000  0.81785000  1.0 1.1208678498
W  W43  1  0.30782000  0.21968000  0.31785000  1.0 1.1208678498
W  W44  1  0.69218000  0.71968000  0.18215000  1.0 1.1284918402
W  W45  1  0.56230000  0.98957000  0.83902000  1.0 1.3845632885
W  W46  1  0.43770000  0.48957000  0.66098000  1.0 1.3854020451
W  W47  1  0.43770000  0.01043000  0.16098000  1.0 1.3845632885
W  W48  1  0.56230000  0.51043000  0.33902000  1.0 1.3854020451
W  W49  1  0.95780000  0.83240000  0.67380000  1.0 0.6724631105
W  W50  1  0.04220000  0.33240000  0.82620000  1.0 0.6854368661
W  W51  1  0.04220000  0.16760000  0.32620000  1.0 0.6724631105
W  W52  1  0.95780000  0.66760000  0.17380000  1.0 0.6841470812
W  W53  1  0.71610000  0.78650000  0.66160000  1.0 0.8486786549
W  W54  1  0.28390000  0.28650000  0.83840000  1.0 0.8486786549
W  W55  1  0.28390000  0.21350000  0.33840000  1.0 0.8486786549
W  W56  1  0.71610000  0.71350000  0.16160000  1.0 0.8486786549
W  W57  1  0.55140000  0.98320000  0.82060000  1.0 1.1943361773
W  W58  1  0.44860000  0.48320000  0.67940000  1.0 1.1943361773
W  W59  1  0.44860000  0.01680000  0.17940000  1.0 1.2024201964
W  W60  1  0.55140000  0.51680000  0.32060000  1.0 1.1943361773
W  W61  1  0.75860000  0.88890000  0.90650000  1.0 0.7601532553
W  W62  1  0.24140000  0.38890000  0.59350000  1.0 0.769368491
W  W63  1  0.24140000  0.11110000  0.09350000  1.0 0.769368491
W  W64  1  0.75860000  0.61110000  0.40650000  1.0 0.7601532553
C  C1  1  0.39200000  0.67230000  0.62800000  1.0 0.5977823947
C  C2  1  0.60800000  0.17230000  0.87200000  1.0 0.5977823947
C  C3  1  0.60800000  0.32770000  0.37200000  1.0 0.5977823947
C  C4  1  0.39200000  0.82770000  0.12800000  1.0 0.5977823947
C  C5  1  0.35000000  0.68640000  0.68850000  1.0 0.0721826375
C  C6  1  0.65000000  0.18640000  0.81150000  1.0 0.0721826375
C  C7  1  0.65000000  0.31360000  0.31150000  1.0 0.0721826375
C  C8  1  0.35000000  0.81360000  0.18850000  1.0 0.0721826375
C  C9  1  0.41200000  0.67920000  0.74040000  1.0 0.0409962813
C  C10  1  0.58800000  0.17920000  0.75960000  1.0 0.0409962813
C  C11  1  0.58800000  0.32080000  0.25960000  1.0 0.0409962813
C  C12  1  0.41200000  0.82080000  0.24040000  1.0 0.0409962813
C  C13  1  0.26000000  0.70850000  0.79420000  1.0 0.0032244053
C  C14  1  0.74000000  0.20850000  0.70580000  1.0 0.0032244053
C  C15  1  0.74000000  0.29150000  0.20580000  1.0 0.0032244053
C  C16  1  0.26000000  0.79150000  0.29420000  1.0 0.0032244053
C  C17  1  0.20200000  0.71350000  0.74300000  1.0 0.093355785
C  C18  1  0.79800000  0.21350000  0.75700000  1.0 0.093355785
C  C19  1  0.79800000  0.28650000  0.25700000  1.0 0.093355785
C  C20  1  0.20200000  0.78650000  0.24300000  1.0 0.093355785
C  C21  1  0.89550000  0.64900000  0.64490000  1.0 0.5567856048
C  C22  1  0.10450000  0.14900000  0.85510000  1.0 0.5567856048
C  C23  1  0.10450000  0.35100000  0.35510000  1.0 0.5567856048
C  C24  1  0.89550000  0.85100000  0.14490000  1.0 0.5567856048
C  C25  1  0.83670000  0.63060000  0.70040000  1.0 0.0623898141
C  C26  1  0.16330000  0.13060000  0.79960000  1.0 0.0623898141
C  C27  1  0.16330000  0.36940000  0.29960000  1.0 0.0623898141
C  C28  1  0.83670000  0.86940000  0.20040000  1.0 0.0623898141
C  C29  1  0.88500000  0.63750000  0.75620000  1.0 0.0721826375
C  C30  1  0.11500000  0.13750000  0.74380000  1.0 0.0721826375
C  C31  1  0.11500000  0.36250000  0.24380000  1.0 0.0721826375
C  C32  1  0.88500000  0.86250000  0.25620000  1.0 0.0721826375
C  C33  1  0.73600000  0.59540000  0.79730000  1.0 0.0409962813
C  C34  1  0.26400000  0.09540000  0.70270000  1.0 0.0409962813
C  C35  1  0.26400000  0.40460000  0.20270000  1.0 0.0409962813
C  C36  1  0.73600000  0.90460000  0.29730000  1.0 0.0409962813
C  C37  1  0.68660000  0.58960000  0.74280000  1.0 0.093355785
C  C38  1  0.31340000  0.08960000  0.75720000  1.0 0.093355785
C  C39  1  0.31340000  0.41040000  0.25720000  1.0 0.093355785
C  C40  1  0.68660000  0.91040000  0.24280000  1.0 0.093355785
N  N1  1  0.73490000  0.60800000  0.69320000  1.0 -0.3085300752
N  N2  1  0.26510000  0.10800000  0.80680000  1.0 -0.3085300752
N  N3  1  0.26510000  0.39200000  0.30680000  1.0 -0.3085300752
N  N4  1  0.73490000  0.89200000  0.19320000  1.0 -0.3085300752
N  N5  1  0.83690000  0.62130000  0.80250000  1.0 -0.1420936186
N  N6  1  0.16310000  0.12130000  0.69750000  1.0 -0.1420936186
N  N7  1  0.16310000  0.37870000  0.19750000  1.0 -0.1420936186
N  N8  1  0.83690000  0.87870000  0.30250000  1.0 -0.1420936186
N  N9  1  0.24280000  0.70200000  0.68960000  1.0 -0.3160205092
N  N10  1  0.75720000  0.20200000  0.81040000  1.0 -0.3160205092
N  N11  1  0.75720000  0.29800000  0.31040000  1.0 -0.3160205092
N  N12  1  0.24280000  0.79800000  0.18960000  1.0 -0.3160205092
N  N13  1  0.36720000  0.69090000  0.79140000  1.0 0.0475349453
N  N14  1  0.63280000  0.19090000  0.70860000  1.0 0.0475349453
N  N15  1  0.63280000  0.30910000  0.20860000  1.0 0.0475349453
N  N16  1  0.36720000  0.80910000  0.29140000  1.0 0.0475349453
N  N17  1  0.30600000  0.92400000  0.00670000  1.0 -0.6779988493
N  N18  1  0.69400000  0.42400000  0.49330000  1.0 -0.6779988493
N  N19  1  0.69400000  0.07600000  0.99330000  1.0 -0.6779988493
N  N20  1  0.30600000  0.57600000  0.50670000  1.0 -0.6779988493
N  N21  1  0.89900000  0.85740000  0.41310000  1.0 -0.6524601813
N  N22  1  0.10100000  0.35740000  0.08690000  1.0 -0.6524601813
N  N23  1  0.10100000  0.14260000  0.58690000  1.0 -0.6524601813
N  N24  1  0.89900000  0.64260000  0.91310000  1.0 -0.6524601813
O  O1  1  0.07330000  0.89610000  0.72180000  1.0 -0.71686978
O  O2  1  0.92670000  0.39610000  0.77820000  1.0 -0.71686978
O  O3  1  0.92670000  0.10390000  0.27820000  1.0 -0.71686978
O  O4  1  0.07330000  0.60390000  0.22180000  1.0 -0.71686978
O  O5  1  0.79720000  0.91490000  0.53720000  1.0 -0.5787637244
O  O6  1  0.20280000  0.41490000  0.96280000  1.0 -0.5787637244
O  O7  1  0.20280000  0.08510000  0.46280000  1.0 -0.5787637244
O  O8  1  0.79720000  0.58510000  0.03720000  1.0 -0.5787637244
O  O9  1  0.06220000  0.79180000  0.65500000  1.0 -0.5707197507
O  O10  1  0.93780000  0.29180000  0.84500000  1.0 -0.5707197507
O  O11  1  0.93780000  0.20820000  0.34500000  1.0 -0.5707197507
O  O12  1  0.06220000  0.70820000  0.15500000  1.0 -0.5707197507
O  O13  1  0.35860000  0.84430000  0.73660000  1.0 -0.5707197507
O  O14  1  0.64140000  0.34430000  0.76340000  1.0 -0.5707197507
O  O15  1  0.64140000  0.15570000  0.26340000  1.0 -0.5707197507
O  O16  1  0.35860000  0.65570000  0.23660000  1.0 -0.5707197507
O  O17  1  0.45110000  0.02890000  0.86160000  1.0 -0.6779988493
O  O18  1  0.54890000  0.52890000  0.63840000  1.0 -0.6779988493
O  O19  1  0.54890000  0.97110000  0.13840000  1.0 -0.6779988493
O  O20  1  0.45110000  0.47110000  0.36160000  1.0 -0.6779988493
O  O21  1  0.73200000  0.89090000  0.98670000  1.0 -0.6317395554
O  O22  1  0.26800000  0.39090000  0.51330000  1.0 -0.6317395554
O  O23  1  0.26800000  0.10910000  0.01330000  1.0 -0.6317395554
O  O24  1  0.73200000  0.60910000  0.48670000  1.0 -0.6317395554
O  O25  1  0.16260000  0.98510000  0.79100000  1.0 -0.5880809139
O  O26  1  0.83740000  0.48510000  0.70900000  1.0 -0.5880809139
O  O27  1  0.83740000  0.01490000  0.20900000  1.0 -0.5880809139
O  O28  1  0.16260000  0.51490000  0.29100000  1.0 -0.5880809139
O  O29  1  0.47910000  0.03950000  0.64330000  1.0 -0.6206730168
O  O30  1  0.52090000  0.53950000  0.85670000  1.0 -0.6206730168
O  O31  1  0.52090000  0.96050000  0.35670000  1.0 -0.6206730168
O  O32  1  0.47910000  0.46050000  0.14330000  1.0 -0.6206730168
O  O33  1  0.68050000  0.71940000  0.63140000  1.0 -0.6317395554
O  O34  1  0.31950000  0.21940000  0.86860000  1.0 -0.6317395554
O  O35  1  0.31950000  0.28060000  0.36860000  1.0 -0.6317395554
O  O36  1  0.68050000  0.78060000  0.13140000  1.0 -0.6317395554
O  O37  1  0.66980000  0.83510000  0.88330000  1.0 -0.6317395554
O  O38  1  0.33020000  0.33510000  0.61670000  1.0 -0.6317395554
O  O39  1  0.33020000  0.16490000  0.11670000  1.0 -0.6317395554
O  O40  1  0.66980000  0.66490000  0.38330000  1.0 -0.6317395554
O  O41  1  0.95090000  0.99690000  0.83620000  1.0 -0.8308860671
O  O42  1  0.04910000  0.49690000  0.66380000  1.0 -0.8308860671
O  O43  1  0.04910000  0.00310000  0.16380000  1.0 -0.8308860671
O  O44  1  0.95090000  0.50310000  0.33620000  1.0 -0.8308860671
O  O45  1  0.67710000  0.84290000  0.75500000  1.0 -0.8605615284
O  O46  1  0.32290000  0.34290000  0.74500000  1.0 -0.8650176908
O  O47  1  0.32290000  0.15710000  0.24500000  1.0 -0.8650176908
O  O48  1  0.67710000  0.65710000  0.25500000  1.0 -0.8605615284
O  O49  1  0.84580000  0.78440000  0.69370000  1.0 -0.5642072942
O  O50  1  0.15420000  0.28440000  0.80630000  1.0 -0.5707197507
O  O51  1  0.15420000  0.21560000  0.30630000  1.0 -0.5642072942
O  O52  1  0.84580000  0.71560000  0.19370000  1.0 -0.5642072942
O  O53  1  0.03120000  0.77700000  0.88890000  1.0 -0.5532697524
O  O54  1  0.96880000  0.27700000  0.61110000  1.0 -0.5532697524
O  O55  1  0.96880000  0.22300000  0.11110000  1.0 -0.5532697524
O  O56  1  0.03120000  0.72300000  0.38890000  1.0 -0.5532697524
O  O57  1  0.81250000  0.06070000  0.77390000  1.0 -0.8389398206
O  O58  1  0.18750000  0.56070000  0.72610000  1.0 -0.8389398206
O  O59  1  0.18750000  0.93930000  0.22610000  1.0 -0.8389398206
O  O60  1  0.81250000  0.43930000  0.27390000  1.0 -0.8389398206
O  O61  1  0.85320000  0.99910000  0.62260000  1.0 -0.8213762354
O  O62  1  0.14680000  0.49910000  0.87740000  1.0 -0.8213762354
O  O63  1  0.14680000  0.00090000  0.37740000  1.0 -0.8213762354
O  O64  1  0.85320000  0.50090000  0.12260000  1.0 -0.8213762354
O  O65  1  0.72810000  0.95240000  0.83160000  1.0 -0.8119209494
O  O66  1  0.27190000  0.45240000  0.66840000  1.0 -0.8119209494
O  O67  1  0.27190000  0.04760000  0.16840000  1.0 -0.8119209494
O  O68  1  0.72810000  0.54760000  0.33160000  1.0 -0.8119209494
O  O69  1  0.87680000  0.87060000  0.89600000  1.0 -0.6011857103
O  O70  1  0.12320000  0.37060000  0.60400000  1.0 -0.6011857103
O  O71  1  0.12320000  0.12940000  0.10400000  1.0 -0.6011857103
O  O72  1  0.87680000  0.62940000  0.39600000  1.0 -0.6011857103
O  O73  1  0.96900000  0.00200000  0.72290000  1.0 -0.8389398206
O  O74  1  0.03100000  0.50200000  0.77710000  1.0 -0.8389398206
O  O75  1  0.03100000  0.99800000  0.27710000  1.0 -0.8389398206
O  O76  1  0.96900000  0.49800000  0.22290000  1.0 -0.8389398206
O  O77  1  0.74480000  0.95600000  0.70400000  1.0 -0.8511018209
O  O78  1  0.25520000  0.45600000  0.79600000  1.0 -0.8511018209
O  O79  1  0.25520000  0.04400000  0.29600000  1.0 -0.8511018209
O  O80  1  0.74480000  0.54400000  0.20400000  1.0 -0.8511018209
O  O81  1  0.90870000  0.88500000  0.64390000  1.0 -0.6011857103
O  O82  1  0.09130000  0.38500000  0.85610000  1.0 -0.6011857103
O  O83  1  0.09130000  0.11500000  0.35610000  1.0 -0.6011857103
O  O84  1  0.90870000  0.61500000  0.14390000  1.0 -0.6011857103
O  O85  1  0.59310000  0.94770000  0.91170000  1.0 -0.7029727485
O  O86  1  0.40690000  0.44770000  0.58830000  1.0 -0.7029727485
O  O87  1  0.40690000  0.05230000  0.08830000  1.0 -0.7029727485
O  O88  1  0.59310000  0.55230000  0.41170000  1.0 -0.7029727485
O  O89  1  0.56000000  0.01870000  0.75760000  1.0 -0.6574893679
O  O90  1  0.44000000  0.51870000  0.74240000  1.0 -0.6574893679
O  O91  1  0.44000000  0.98130000  0.24240000  1.0 -0.6574893679
O  O92  1  0.56000000  0.48130000  0.25760000  1.0 -0.6574893679
O  O93  1  0.70640000  0.84750000  0.62910000  1.0 -0.6096704986
O  O94  1  0.29360000  0.34750000  0.87090000  1.0 -0.6096704986
O  O95  1  0.29360000  0.15250000  0.37090000  1.0 -0.6096704986
O  O96  1  0.70640000  0.65250000  0.12910000  1.0 -0.6096704986
O  O97  1  0.52510000  0.79240000  0.80520000  1.0 -0.8389398206
O  O98  1  0.47490000  0.29240000  0.69480000  1.0 -0.8389398206
O  O99  1  0.47490000  0.20760000  0.19480000  1.0 -0.8389398206
O  O100  1  0.52510000  0.70760000  0.30520000  1.0 -0.8389398206
O  O101  1  0.00680000  0.78980000  0.77070000  1.0 -0.7404767211
O  O102  1  0.99320000  0.28980000  0.72930000  1.0 -0.7404767211
O  O103  1  0.99320000  0.21020000  0.22930000  1.0 -0.7404767211
O  O104  1  0.00680000  0.71020000  0.27070000  1.0 -0.7404767211
O  O105  1  0.68160000  0.72970000  0.75000000  1.0 -0.7600865032
O  O106  1  0.31840000  0.22970000  0.75000000  1.0 -0.7600865032
O  O107  1  0.31840000  0.27030000  0.25000000  1.0 -0.7600865032
O  O108  1  0.68160000  0.77030000  0.25000000  1.0 -0.7600865032
O  O109  1  0.82510000  0.77260000  0.83240000  1.0 -0.8389398206
O  O110  1  0.17490000  0.27260000  0.66760000  1.0 -0.8389398206
O  O111  1  0.17490000  0.22740000  0.16760000  1.0 -0.8389398206
O  O112  1  0.82510000  0.72740000  0.33240000  1.0 -0.8389398206
O  O113  1  0.64410000  0.96270000  0.60970000  1.0 -0.8308860671
O  O114  1  0.35590000  0.46270000  0.89030000  1.0 -0.8308860671
O  O115  1  0.35590000  0.03730000  0.39030000  1.0 -0.8308860671
O  O116  1  0.64410000  0.53730000  0.10970000  1.0 -0.8308860671
O  O117  1  0.06100000  0.88870000  0.84060000  1.0 -0.8213762354
O  O118  1  0.93900000  0.38870000  0.65940000  1.0 -0.8213762354
O  O119  1  0.93900000  0.11130000  0.15940000  1.0 -0.8213762354
O  O120  1  0.06100000  0.61130000  0.34060000  1.0 -0.8213762354
O  O121  1  0.85260000  0.10040000  0.88940000  1.0 -0.7600865032
O  O122  1  0.14740000  0.60040000  0.61060000  1.0 -0.7600865032
O  O123  1  0.14740000  0.89960000  0.11060000  1.0 -0.7600865032
O  O124  1  0.85260000  0.39960000  0.38940000  1.0 -0.7600865032
O  O125  1  0.89880000  0.88280000  0.77210000  1.0 -0.8605615284
O  O126  1  0.10120000  0.38280000  0.72790000  1.0 -0.8511018209
O  O127  1  0.10120000  0.11720000  0.22790000  1.0 -0.8605615284
O  O128  1  0.89880000  0.61720000  0.27210000  1.0 -0.8605615284
O  O129  1  0.80830000  0.98750000  0.92590000  1.0 -0.7494746234
O  O130  1  0.19170000  0.48750000  0.57410000  1.0 -0.7600865032
O  O131  1  0.19170000  0.01250000  0.07410000  1.0 -0.7600865032
O  O132  1  0.80830000  0.51250000  0.42590000  1.0 -0.7494746234
O  O133  1  0.54110000  0.80040000  0.68570000  1.0 -0.7494746234
O  O134  1  0.45890000  0.30040000  0.81430000  1.0 -0.7494746234
O  O135  1  0.45890000  0.19960000  0.31430000  1.0 -0.7494746234
O  O136  1  0.54110000  0.69960000  0.18570000  1.0 -0.7494746234
O  O137  1  0.51980000  0.92180000  0.69190000  1.0 -0.8605615284
O  O138  1  0.48020000  0.42180000  0.80810000  1.0 -0.8605615284
O  O139  1  0.48020000  0.07820000  0.30810000  1.0 -0.8605615284
O  O140  1  0.51980000  0.57820000  0.19190000  1.0 -0.8605615284
O  O141  1  0.49950000  0.91620000  0.80700000  1.0 -0.6423047717
O  O142  1  0.50050000  0.41620000  0.69300000  1.0 -0.6423047717
O  O143  1  0.50050000  0.08380000  0.19300000  1.0 -0.6423047717
O  O144  1  0.49950000  0.58380000  0.30700000  1.0 -0.6423047717
O  O145  1  0.66370000  0.05470000  0.85790000  1.0 -0.7941204693
O  O146  1  0.33630000  0.55470000  0.64210000  1.0 -0.7950340893
O  O147  1  0.33630000  0.94530000  0.14210000  1.0 -0.7950340893
O  O148  1  0.66370000  0.44530000  0.35790000  1.0 -0.7941204693
O  O149  1  0.69300000  0.06120000  0.67460000  1.0 -0.8511018209
O  O150  1  0.30700000  0.56120000  0.82540000  1.0 -0.8511018209
O  O151  1  0.30700000  0.93880000  0.32540000  1.0 -0.8511018209
O  O152  1  0.69300000  0.43880000  0.17460000  1.0 -0.8511018209
O  O153  1  0.89800000  0.11400000  0.67190000  1.0 -0.6574893679
O  O154  1  0.10200000  0.61400000  0.82810000  1.0 -0.6574893679
O  O155  1  0.10200000  0.88600000  0.32810000  1.0 -0.6574893679
O  O156  1  0.89800000  0.38600000  0.17190000  1.0 -0.6574893679
O  O157  1  0.64320000  0.70780000  0.86530000  1.0 -0.6206730168
O  O158  1  0.35680000  0.20780000  0.63470000  1.0 -0.6206730168
O  O159  1  0.35680000  0.29220000  0.13470000  1.0 -0.6206730168
O  O160  1  0.64320000  0.79220000  0.36530000  1.0 -0.6206730168
O  O161  1  0.01000000  0.78260000  0.53200000  1.0 -0.332564437
O  O162  1  0.99000000  0.28260000  0.96800000  1.0 -0.332564437
O  O163  1  0.99000000  0.21740000  0.46800000  1.0 -0.332564437
O  O164  1  0.01000000  0.71740000  0.03200000  1.0 -0.332564437
O  O165  1  0.19870000  0.70720000  0.48380000  1.0 -0.3160205092
O  O166  1  0.80130000  0.20720000  0.01620000  1.0 -0.3085300752
O  O167  1  0.80130000  0.29280000  0.51620000  1.0 -0.3085300752
O  O168  1  0.19870000  0.79280000  0.98380000  1.0 -0.3085300752
O  O169  1  0.00190000  0.65030000  0.51930000  1.0 0.0091637034
O  O170  1  0.99810000  0.15030000  0.98070000  1.0 0.0154494633
O  O171  1  0.99810000  0.34970000  0.48070000  1.0 0.0091637034
O  O172  1  0.00190000  0.84970000  0.01930000  1.0 0.0091637034
O  O173  1  0.24920000  0.80460000  0.57980000  1.0 -0.362689449
O  O174  1  0.75080000  0.30460000  0.92020000  1.0 -0.3652829911
O  O175  1  0.75080000  0.19540000  0.42020000  1.0 -0.3652829911
O  O176  1  0.24920000  0.69540000  0.07980000  1.0 -0.362689449
O  O177  1  0.98700000  0.67240000  0.65000000  1.0 -0.5880809139
O  O178  1  0.01300000  0.17240000  0.85000000  1.0 -0.5880809139
O  O179  1  0.01300000  0.32760000  0.35000000  1.0 -0.5880809139
O  O180  1  0.98700000  0.82760000  0.15000000  1.0 -0.5880809139
O  O181  1  0.33020000  0.68070000  0.58480000  1.0 -0.5787637244
O  O182  1  0.66980000  0.18070000  0.91520000  1.0 -0.5787637244
O  O183  1  0.66980000  0.31930000  0.41520000  1.0 -0.5787637244
O  O184  1  0.33020000  0.81930000  0.08480000  1.0 -0.5787637244
O  O185  1  0.48830000  0.65580000  0.62820000  1.0 -0.5787637244
O  O186  1  0.51170000  0.15580000  0.87180000  1.0 -0.5787637244
O  O187  1  0.51170000  0.34420000  0.37180000  1.0 -0.5787637244
O  O188  1  0.48830000  0.84420000  0.12820000  1.0 -0.5787637244
O  O189  1  0.84430000  0.63760000  0.59600000  1.0 -0.5787637244
O  O190  1  0.15570000  0.13760000  0.90400000  1.0 -0.5787637244
O  O191  1  0.15570000  0.36240000  0.40400000  1.0 -0.5787637244
O  O192  1  0.84430000  0.86240000  0.09600000  1.0 -0.5787637244
O  O193  1  0.51040000  0.56940000  0.51650000  1.0 -0.3793562214
O  O194  1  0.48960000  0.06940000  0.98350000  1.0 -0.3793562214
O  O195  1  0.48960000  0.43060000  0.48350000  1.0 -0.3793562214
O  O196  1  0.51040000  0.93060000  0.01650000  1.0 -0.3793562214
O  O197  1  0.58730000  0.70440000  0.51670000  1.0 -0.2192556496
O  O198  1  0.41270000  0.20440000  0.98330000  1.0 -0.2192556496
O  O199  1  0.41270000  0.29560000  0.48330000  1.0 -0.2192556496
O  O200  1  0.58730000  0.79560000  0.01670000  1.0 -0.2192556496
O  O201  1  0.74050000  0.51540000  0.57850000  1.0 -0.362689449
O  O202  1  0.25950000  0.01540000  0.92150000  1.0 -0.362689449
O  O203  1  0.25950000  0.48460000  0.42150000  1.0 -0.362689449
O  O204  1  0.74050000  0.98460000  0.07850000  1.0 -0.362689449
