# DDEC6 charges by PACMAN v1.1 (https://github.com/mtap-research/PACMAN-charge/)
data_ZAYKER_ion_pacman
_symmetry_space_group_name_H-M   'P 1'
_cell_length_a   12.23200000
_cell_length_b   21.81800000
_cell_length_c   22.78400000
_cell_angle_alpha   90.00000000
_cell_angle_beta   91.40100000
_cell_angle_gamma   90.00000000
_symmetry_Int_Tables_number   1
_chemical_formula_structural   Sm2H14W16C10(N2O17)3
_chemical_formula_sum   'Sm8 H56 W64 C40 N24 O204'
_cell_volume   6078.72555029
_cell_formula_units_Z   4
loop_
 _symmetry_equiv_pos_site_id
 _symmetry_equiv_pos_as_xyz
  1  'x, y, z'
loop_
 _atom_site_type_symbol
 _atom_site_label
 _atom_site_symmetry_multiplicity
 _atom_site_fract_x
 _atom_site_fract_y
 _atom_site_fract_z
 _atom_site_occupancy
 _atom_site_charge
Sm  Sm1  1  0.86717000  0.28997000  0.91336000  1.0 2.061241077
Sm  Sm2  1  0.13283000  0.78997000  0.58664000  1.0 2.061241077
Sm  Sm3  1  0.13283000  0.71003000  0.08664000  1.0 2.061241077
Sm  Sm4  1  0.86717000  0.21003000  0.41336000  1.0 2.061241077
Sm  Sm5  1  0.35248000  0.38380000  0.91550000  1.0 2.0500079857
Sm  Sm6  1  0.64752000  0.88380000  0.58450000  1.0 2.0500079857
Sm  Sm7  1  0.64752000  0.61620000  0.08450000  1.0 2.0500079857
Sm  Sm8  1  0.35248000  0.11620000  0.41550000  1.0 2.0500079857
H  H1  1  0.38080000  0.42450000  0.76400000  1.0 0.0802014028
H  H2  1  0.61920000  0.92450000  0.73600000  1.0 0.0802014028
H  H3  1  0.61920000  0.57550000  0.23600000  1.0 0.0802014028
H  H4  1  0.38080000  0.07550000  0.26400000  1.0 0.0802014028
H  H5  1  0.30390000  0.41400000  0.66620000  1.0 0.1046392114
H  H6  1  0.69610000  0.91400000  0.83380000  1.0 0.1046392114
H  H7  1  0.69610000  0.58600000  0.33380000  1.0 0.1046392114
H  H8  1  0.30390000  0.08600000  0.16620000  1.0 0.1046392114
H  H9  1  0.51800000  0.33780000  0.75500000  1.0 0.1082505302
H  H10  1  0.48200000  0.83780000  0.74500000  1.0 0.1082505302
H  H11  1  0.48200000  0.66220000  0.24500000  1.0 0.1082505302
H  H12  1  0.51800000  0.16220000  0.25500000  1.0 0.1082505302
H  H13  1  0.77580000  0.29300000  0.66610000  1.0 0.1207194866
H  H14  1  0.22420000  0.79300000  0.83390000  1.0 0.1207194866
H  H15  1  0.22420000  0.70700000  0.33390000  1.0 0.1207194866
H  H16  1  0.77580000  0.20700000  0.16610000  1.0 0.1207194866
H  H17  1  0.04540000  0.34520000  0.73980000  1.0 0.1207194866
H  H18  1  0.95460000  0.84520000  0.76020000  1.0 0.1207194866
H  H19  1  0.95460000  0.65480000  0.26020000  1.0 0.1207194866
H  H20  1  0.04540000  0.15480000  0.23980000  1.0 0.1207194866
H  H21  1  0.88350000  0.27820000  0.75370000  1.0 0.1207194866
H  H22  1  0.11650000  0.77820000  0.74630000  1.0 0.1207194866
H  H23  1  0.11650000  0.72180000  0.24630000  1.0 0.1207194866
H  H24  1  0.88350000  0.22180000  0.25370000  1.0 0.1207194866
H  H25  1  0.73400000  0.40370000  0.58620000  1.0 0.2779158608
H  H26  1  0.64560000  0.37720000  0.54210000  1.0 0.2882717268
H  H27  1  0.69110000  0.44370000  0.53330000  1.0 0.2779158608
H  H28  1  0.76610000  0.38680000  0.52200000  1.0 0.267890835
H  H29  1  0.26600000  0.90370000  0.91380000  1.0 0.2779158608
H  H30  1  0.35440000  0.87720000  0.95790000  1.0 0.2882717268
H  H31  1  0.30890000  0.94370000  0.96670000  1.0 0.2779158608
H  H32  1  0.23390000  0.88680000  0.97800000  1.0 0.267890835
H  H33  1  0.26600000  0.59630000  0.41380000  1.0 0.2779158608
H  H34  1  0.35440000  0.62280000  0.45790000  1.0 0.2882717268
H  H35  1  0.30890000  0.55630000  0.46670000  1.0 0.2779158608
H  H36  1  0.23390000  0.61320000  0.47800000  1.0 0.267890835
H  H37  1  0.73400000  0.09630000  0.08620000  1.0 0.2779158608
H  H38  1  0.64560000  0.12280000  0.04210000  1.0 0.2882717268
H  H39  1  0.69110000  0.05630000  0.03330000  1.0 0.2779158608
H  H40  1  0.76610000  0.11320000  0.02200000  1.0 0.267890835
H  H41  1  0.92260000  0.03820000  0.94290000  1.0 0.2779158608
H  H42  1  0.86960000  0.97440000  0.92800000  1.0 0.2779158608
H  H43  1  0.84720000  0.03070000  0.88670000  1.0 0.2779158608
H  H44  1  0.96330000  0.00020000  0.88930000  1.0 0.2882717268
H  H45  1  0.07740000  0.53820000  0.55710000  1.0 0.2779158608
H  H46  1  0.13040000  0.47440000  0.57200000  1.0 0.2779158608
H  H47  1  0.15280000  0.53070000  0.61330000  1.0 0.2779158608
H  H48  1  0.03670000  0.50020000  0.61070000  1.0 0.2882717268
H  H49  1  0.07740000  0.96180000  0.05710000  1.0 0.2779158608
H  H50  1  0.13040000  0.02560000  0.07200000  1.0 0.2779158608
H  H51  1  0.15280000  0.96930000  0.11330000  1.0 0.2779158608
H  H52  1  0.03670000  0.99980000  0.11070000  1.0 0.2882717268
H  H53  1  0.92260000  0.46180000  0.44290000  1.0 0.2779158608
H  H54  1  0.86960000  0.52560000  0.42800000  1.0 0.2779158608
H  H55  1  0.84720000  0.46930000  0.38670000  1.0 0.2779158608
H  H56  1  0.96330000  0.49980000  0.38930000  1.0 0.2882717268
W  W1  1  0.22111000  0.07853000  0.89093000  1.0 2.1782299148
W  W2  1  0.77889000  0.57853000  0.60907000  1.0 2.1782299148
W  W3  1  0.77889000  0.92147000  0.10907000  1.0 2.1782299148
W  W4  1  0.22111000  0.42147000  0.39093000  1.0 2.1782299148
W  W5  1  0.15485000  0.95555000  0.80658000  1.0 2.2157421377
W  W6  1  0.84515000  0.45555000  0.69342000  1.0 2.2144812213
W  W7  1  0.84515000  0.04445000  0.19342000  1.0 2.2157421377
W  W8  1  0.15485000  0.54445000  0.30658000  1.0 2.2157421377
W  W9  1  0.30711000  0.21919000  0.81907000  1.0 2.3825769888
W  W10  1  0.69289000  0.71919000  0.68093000  1.0 2.3825769888
W  W11  1  0.69289000  0.78081000  0.18093000  1.0 2.3825769888
W  W12  1  0.30711000  0.28081000  0.31907000  1.0 2.3825769888
W  W13  1  0.32834000  0.22738000  0.67469000  1.0 2.290300356
W  W14  1  0.67166000  0.72738000  0.82531000  1.0 2.290300356
W  W15  1  0.67166000  0.77262000  0.32531000  1.0 2.290300356
W  W16  1  0.32834000  0.27262000  0.17469000  1.0 2.290300356
W  W17  1  0.50585000  0.14335000  0.75485000  1.0 2.260328816
W  W18  1  0.49415000  0.64335000  0.74515000  1.0 2.260328816
W  W19  1  0.49415000  0.85665000  0.24515000  1.0 2.260328816
W  W20  1  0.50585000  0.35665000  0.25485000  1.0 2.260328816
W  W21  1  0.18351000  0.96557000  0.64745000  1.0 2.3428144919
W  W22  1  0.81649000  0.46557000  0.85255000  1.0 2.3428144919
W  W23  1  0.81649000  0.03443000  0.35255000  1.0 2.3428144919
W  W24  1  0.18351000  0.53443000  0.14745000  1.0 2.3428144919
W  W25  1  0.26160000  0.09095000  0.58534000  1.0 0.9182661639
W  W26  1  0.73840000  0.59095000  0.91466000  1.0 0.8927763568
W  W27  1  0.73840000  0.90905000  0.41466000  1.0 0.8957056866
W  W28  1  0.26160000  0.40905000  0.08534000  1.0 0.9182661639
W  W29  1  0.43830000  0.01059000  0.66212000  1.0 1.0088188218
W  W30  1  0.56170000  0.51059000  0.83788000  1.0 1.0088188218
W  W31  1  0.56170000  0.98941000  0.33788000  1.0 1.0088188218
W  W32  1  0.43830000  0.48941000  0.16212000  1.0 1.0088188218
W  W33  1  0.02360000  0.16764000  0.79947000  1.0 1.0611154503
W  W34  1  0.97640000  0.66764000  0.70053000  1.0 1.0611154503
W  W35  1  0.97640000  0.83236000  0.20053000  1.0 1.0449608432
W  W36  1  0.02360000  0.33236000  0.29947000  1.0 1.0611154503
W  W37  1  0.96256000  0.04665000  0.71841000  1.0 2.3239573107
W  W38  1  0.03744000  0.54665000  0.78159000  1.0 2.3239573107
W  W39  1  0.03744000  0.95335000  0.28159000  1.0 2.3239573107
W  W40  1  0.96256000  0.45335000  0.21841000  1.0 2.3239573107
W  W41  1  0.41884000  0.00081000  0.82197000  1.0 1.1787073082
W  W42  1  0.58116000  0.50081000  0.67803000  1.0 1.1787073082
W  W43  1  0.58116000  0.99919000  0.17803000  1.0 1.1787073082
W  W44  1  0.41884000  0.49919000  0.32197000  1.0 1.1907894479
W  W45  1  0.04408000  0.17945000  0.65725000  1.0 2.2444459067
W  W46  1  0.95592000  0.67945000  0.84275000  1.0 2.2444459067
W  W47  1  0.95592000  0.82055000  0.34275000  1.0 2.2454980479
W  W48  1  0.04408000  0.32055000  0.15725000  1.0 2.2454980479
W  W49  1  0.49800000  0.99500000  0.82200000  1.0 0.6972462402
W  W50  1  0.50200000  0.49500000  0.67800000  1.0 0.6972462402
W  W51  1  0.50200000  0.00500000  0.17800000  1.0 0.7123761045
W  W52  1  0.49800000  0.50500000  0.32200000  1.0 0.6945043073
W  W53  1  0.03320000  0.16720000  0.82300000  1.0 0.8252618776
W  W54  1  0.96680000  0.66720000  0.67700000  1.0 0.818608986
W  W55  1  0.96680000  0.83280000  0.17700000  1.0 0.818608986
W  W56  1  0.03320000  0.33280000  0.32300000  1.0 0.818608986
W  W57  1  0.24150000  0.10820000  0.59490000  1.0 0.7123761045
W  W58  1  0.75850000  0.60820000  0.90510000  1.0 0.7191023992
W  W59  1  0.75850000  0.89180000  0.40510000  1.0 0.7123761045
W  W60  1  0.24150000  0.39180000  0.09490000  1.0 0.7191023992
W  W61  1  0.48100000  0.00600000  0.66000000  1.0 0.9373511937
W  W62  1  0.51900000  0.50600000  0.84000000  1.0 0.9373511937
W  W63  1  0.51900000  0.99400000  0.34000000  1.0 0.9373511937
W  W64  1  0.48100000  0.49400000  0.16000000  1.0 0.9488450156
C  C1  1  0.10400000  0.35100000  0.85810000  1.0 0.5659365223
C  C2  1  0.89600000  0.85100000  0.64190000  1.0 0.5659365223
C  C3  1  0.89600000  0.64900000  0.14190000  1.0 0.5659365223
C  C4  1  0.10400000  0.14900000  0.35810000  1.0 0.5659365223
C  C5  1  0.61000000  0.32800000  0.87150000  1.0 0.5978663431
C  C6  1  0.39000000  0.82800000  0.62850000  1.0 0.5978663431
C  C7  1  0.39000000  0.67200000  0.12850000  1.0 0.5978663431
C  C8  1  0.61000000  0.17200000  0.37150000  1.0 0.5978663431
C  C9  1  0.30900000  0.40760000  0.75950000  1.0 0.1354551779
C  C10  1  0.69100000  0.90760000  0.74050000  1.0 0.1354551779
C  C11  1  0.69100000  0.59240000  0.24050000  1.0 0.1354551779
C  C12  1  0.30900000  0.09240000  0.25950000  1.0 0.1354551779
C  C13  1  0.65500000  0.31500000  0.81050000  1.0 0.0802014028
C  C14  1  0.34500000  0.81500000  0.68950000  1.0 0.0802014028
C  C15  1  0.34500000  0.68500000  0.18950000  1.0 0.0802014028
C  C16  1  0.65500000  0.18500000  0.31050000  1.0 0.0802014028
C  C17  1  0.16400000  0.36700000  0.80400000  1.0 0.0802014028
C  C18  1  0.83600000  0.86700000  0.69600000  1.0 0.0802014028
C  C19  1  0.83600000  0.63300000  0.19600000  1.0 0.0802014028
C  C20  1  0.16400000  0.13300000  0.30400000  1.0 0.0802014028
C  C21  1  0.26500000  0.40200000  0.70050000  1.0 0.0258713744
C  C22  1  0.73500000  0.90200000  0.79950000  1.0 0.0258713744
C  C23  1  0.73500000  0.59800000  0.29950000  1.0 0.0258713744
C  C24  1  0.26500000  0.09800000  0.20050000  1.0 0.0258713744
C  C25  1  0.59100000  0.32200000  0.75470000  1.0 0.0802014028
C  C26  1  0.40900000  0.82200000  0.74530000  1.0 0.0802014028
C  C27  1  0.40900000  0.67800000  0.24530000  1.0 0.0802014028
C  C28  1  0.59100000  0.17800000  0.25470000  1.0 0.0802014028
C  C29  1  0.74300000  0.29600000  0.70400000  1.0 0.0171330979
C  C30  1  0.25700000  0.79600000  0.79600000  1.0 0.0171330979
C  C31  1  0.25700000  0.70400000  0.29600000  1.0 0.0171330979
C  C32  1  0.74300000  0.20400000  0.20400000  1.0 0.0171330979
C  C33  1  0.11700000  0.36300000  0.74500000  1.0 0.0802014028
C  C34  1  0.88300000  0.86300000  0.75500000  1.0 0.0802014028
C  C35  1  0.88300000  0.63700000  0.25500000  1.0 0.0802014028
C  C36  1  0.11700000  0.13700000  0.24500000  1.0 0.0802014028
C  C37  1  0.80700000  0.28600000  0.75600000  1.0 0.0877140069
C  C38  1  0.19300000  0.78600000  0.74400000  1.0 0.0877140069
C  C39  1  0.19300000  0.71400000  0.24400000  1.0 0.0877140069
C  C40  1  0.80700000  0.21400000  0.25600000  1.0 0.0877140069
N  N1  1  0.26400000  0.39180000  0.80670000  1.0 -0.3383550702
N  N2  1  0.73600000  0.89180000  0.69330000  1.0 -0.3383550702
N  N3  1  0.73600000  0.60820000  0.19330000  1.0 -0.3383550702
N  N4  1  0.26400000  0.10820000  0.30670000  1.0 -0.3383550702
N  N5  1  0.76100000  0.29610000  0.81060000  1.0 -0.3383550702
N  N6  1  0.23900000  0.79610000  0.68940000  1.0 -0.3383550702
N  N7  1  0.23900000  0.70390000  0.18940000  1.0 -0.3383550702
N  N8  1  0.76100000  0.20390000  0.31060000  1.0 -0.3383550702
N  N9  1  0.16500000  0.37950000  0.69800000  1.0 0.0383238921
N  N10  1  0.83500000  0.87950000  0.80200000  1.0 0.0383238921
N  N11  1  0.83500000  0.62050000  0.30200000  1.0 0.0383238921
N  N12  1  0.16500000  0.12050000  0.19800000  1.0 0.0383238921
N  N13  1  0.63000000  0.30680000  0.70810000  1.0 -0.0202675268
N  N14  1  0.37000000  0.80680000  0.79190000  1.0 -0.0202675268
N  N15  1  0.37000000  0.69320000  0.29190000  1.0 -0.0202675268
N  N16  1  0.63000000  0.19320000  0.20810000  1.0 -0.0202675268
N  N17  1  0.70900000  0.40300000  0.54600000  1.0 -0.6858456069
N  N18  1  0.29100000  0.90300000  0.95400000  1.0 -0.6858456069
N  N19  1  0.29100000  0.59700000  0.45400000  1.0 -0.6858456069
N  N20  1  0.70900000  0.09700000  0.04600000  1.0 -0.6846953763
N  N21  1  0.90100000  0.01100000  0.91200000  1.0 -0.7198865632
N  N22  1  0.09900000  0.51100000  0.58800000  1.0 -0.7198865632
N  N23  1  0.09900000  0.98900000  0.08800000  1.0 -0.7198865632
N  N24  1  0.90100000  0.48900000  0.41200000  1.0 -0.7198865632
O  O1  1  0.20100000  0.08650000  0.96010000  1.0 -0.5815906061
O  O2  1  0.79900000  0.58650000  0.53990000  1.0 -0.5815906061
O  O3  1  0.79900000  0.91350000  0.03990000  1.0 -0.5815906061
O  O4  1  0.20100000  0.41350000  0.46010000  1.0 -0.5815906061
O  O5  1  0.55400000  0.97110000  0.64020000  1.0 -0.5428096338
O  O6  1  0.44600000  0.47110000  0.85980000  1.0 -0.5428096338
O  O7  1  0.44600000  0.02890000  0.35980000  1.0 -0.5428096338
O  O8  1  0.55400000  0.52890000  0.14020000  1.0 -0.5428096338
O  O9  1  0.93800000  0.20960000  0.84280000  1.0 -0.566950558
O  O10  1  0.06200000  0.70960000  0.65720000  1.0 -0.566950558
O  O11  1  0.06200000  0.79040000  0.15720000  1.0 -0.566950558
O  O12  1  0.93800000  0.29040000  0.34280000  1.0 -0.566950558
O  O13  1  0.01400000  0.32570000  0.85240000  1.0 -0.601251757
O  O14  1  0.98600000  0.82570000  0.64760000  1.0 -0.601251757
O  O15  1  0.98600000  0.67430000  0.14760000  1.0 -0.601251757
O  O16  1  0.01400000  0.17430000  0.35240000  1.0 -0.601251757
O  O17  1  0.84100000  0.01300000  0.70960000  1.0 -0.5611716592
O  O18  1  0.15900000  0.51300000  0.79040000  1.0 -0.5611716592
O  O19  1  0.15900000  0.98700000  0.29040000  1.0 -0.5611716592
O  O20  1  0.84100000  0.48700000  0.20960000  1.0 -0.5611716592
O  O21  1  0.26700000  0.10630000  0.51520000  1.0 -0.6215731336
O  O22  1  0.73300000  0.60630000  0.98480000  1.0 -0.6215731336
O  O23  1  0.73300000  0.89370000  0.48480000  1.0 -0.6215731336
O  O24  1  0.26700000  0.39370000  0.01520000  1.0 -0.6215731336
O  O25  1  0.14700000  0.89910000  0.61280000  1.0 -0.789572662
O  O26  1  0.85300000  0.39910000  0.88720000  1.0 -0.789572662
O  O27  1  0.85300000  0.10090000  0.38720000  1.0 -0.789572662
O  O28  1  0.14700000  0.60090000  0.11280000  1.0 -0.789572662
O  O29  1  0.66600000  0.31970000  0.91820000  1.0 -0.5611716592
O  O30  1  0.33400000  0.81970000  0.58180000  1.0 -0.5611716592
O  O31  1  0.33400000  0.68030000  0.08180000  1.0 -0.5611716592
O  O32  1  0.66600000  0.18030000  0.41820000  1.0 -0.5611716592
O  O33  1  0.47500000  0.20860000  0.69550000  1.0 -0.8354821934
O  O34  1  0.52500000  0.70860000  0.80450000  1.0 -0.8345050348
O  O35  1  0.52500000  0.79140000  0.30450000  1.0 -0.8354821934
O  O36  1  0.47500000  0.29140000  0.19550000  1.0 -0.8354821934
O  O37  1  0.75800000  0.20030000  0.91890000  1.0 -0.4768329023
O  O38  1  0.24200000  0.70030000  0.58110000  1.0 -0.4768329023
O  O39  1  0.24200000  0.79970000  0.08110000  1.0 -0.4768329023
O  O40  1  0.75800000  0.29970000  0.41890000  1.0 -0.4768329023
O  O41  1  0.51500000  0.34800000  0.87470000  1.0 -0.601251757
O  O42  1  0.48500000  0.84800000  0.62530000  1.0 -0.601251757
O  O43  1  0.48500000  0.65200000  0.12530000  1.0 -0.601251757
O  O44  1  0.51500000  0.15200000  0.37470000  1.0 -0.601251757
O  O45  1  0.15700000  0.36390000  0.90750000  1.0 -0.5921710862
O  O46  1  0.84300000  0.86390000  0.59250000  1.0 -0.5921710862
O  O47  1  0.84300000  0.63610000  0.09250000  1.0 -0.5921710862
O  O48  1  0.15700000  0.13610000  0.40750000  1.0 -0.5921710862
O  O49  1  0.27600000  0.04860000  0.66920000  1.0 -0.7990220396
O  O50  1  0.72400000  0.54860000  0.83080000  1.0 -0.7990220396
O  O51  1  0.72400000  0.95140000  0.33080000  1.0 -0.789572662
O  O52  1  0.27600000  0.45140000  0.16920000  1.0 -0.7990220396
O  O53  1  0.51900000  0.95970000  0.85830000  1.0 -0.4070758952
O  O54  1  0.48100000  0.45970000  0.64170000  1.0 -0.4070758952
O  O55  1  0.48100000  0.04030000  0.14170000  1.0 -0.4070758952
O  O56  1  0.51900000  0.54030000  0.35830000  1.0 -0.4070758952
O  O57  1  0.97300000  0.22060000  0.60740000  1.0 -0.5611716592
O  O58  1  0.02700000  0.72060000  0.89260000  1.0 -0.5611716592
O  O59  1  0.02700000  0.77940000  0.39260000  1.0 -0.5611716592
O  O60  1  0.97300000  0.27940000  0.10740000  1.0 -0.5611716592
O  O61  1  0.49000000  0.43130000  0.98010000  1.0 -0.0576254578
O  O62  1  0.51000000  0.93130000  0.51990000  1.0 -0.0576254578
O  O63  1  0.51000000  0.56870000  0.01990000  1.0 -0.0537895917
O  O64  1  0.49000000  0.06870000  0.48010000  1.0 -0.0537895917
O  O65  1  0.47800000  0.07660000  0.80890000  1.0 -0.6693429633
O  O66  1  0.52200000  0.57660000  0.69110000  1.0 -0.6693429633
O  O67  1  0.52200000  0.92340000  0.19110000  1.0 -0.6693429633
O  O68  1  0.47800000  0.42340000  0.30890000  1.0 -0.6693429633
O  O69  1  0.10300000  0.11520000  0.72810000  1.0 -0.8574400577
O  O70  1  0.89700000  0.61520000  0.77190000  1.0 -0.8509112789
O  O71  1  0.89700000  0.88480000  0.27190000  1.0 -0.8509112789
O  O72  1  0.10300000  0.38480000  0.22810000  1.0 -0.8574400577
O  O73  1  0.17600000  0.22640000  0.66820000  1.0 -0.8695504202
O  O74  1  0.82400000  0.72640000  0.83180000  1.0 -0.8695504202
O  O75  1  0.82400000  0.77360000  0.33180000  1.0 -0.8695504202
O  O76  1  0.17600000  0.27360000  0.16820000  1.0 -0.8695504202
O  O77  1  0.94100000  0.11370000  0.65870000  1.0 -0.8509112789
O  O78  1  0.05900000  0.61370000  0.84130000  1.0 -0.8509112789
O  O79  1  0.05900000  0.88630000  0.34130000  1.0 -0.8509112789
O  O80  1  0.94100000  0.38630000  0.15870000  1.0 -0.8509112789
O  O81  1  0.35600000  0.29030000  0.63570000  1.0 -0.5815906061
O  O82  1  0.64400000  0.79030000  0.86430000  1.0 -0.5815906061
O  O83  1  0.64400000  0.70970000  0.36430000  1.0 -0.5815906061
O  O84  1  0.35600000  0.20970000  0.13570000  1.0 -0.5815906061
O  O85  1  0.50100000  0.08200000  0.69470000  1.0 -0.7198865632
O  O86  1  0.49900000  0.58200000  0.80530000  1.0 -0.7198865632
O  O87  1  0.49900000  0.91800000  0.30530000  1.0 -0.7198865632
O  O88  1  0.50100000  0.41800000  0.19470000  1.0 -0.7198865632
O  O89  1  0.31900000  0.27090000  0.75040000  1.0 -0.8574400577
O  O90  1  0.68100000  0.77090000  0.74960000  1.0 -0.8574400577
O  O91  1  0.68100000  0.72910000  0.24960000  1.0 -0.8509112789
O  O92  1  0.31900000  0.22910000  0.25040000  1.0 -0.8574400577
O  O93  1  0.09300000  0.11590000  0.85440000  1.0 -0.6116253717
O  O94  1  0.90700000  0.61590000  0.64560000  1.0 -0.6116253717
O  O95  1  0.90700000  0.88410000  0.14560000  1.0 -0.6116253717
O  O96  1  0.09300000  0.38410000  0.35440000  1.0 -0.6116253717
O  O97  1  0.46100000  0.20320000  0.81420000  1.0 -0.8509112789
O  O98  1  0.53900000  0.70320000  0.68580000  1.0 -0.8509112789
O  O99  1  0.53900000  0.79680000  0.18580000  1.0 -0.8509112789
O  O100  1  0.46100000  0.29680000  0.31420000  1.0 -0.8509112789
O  O101  1  0.25900000  0.48200000  0.92230000  1.0 -0.2767413093
O  O102  1  0.74100000  0.98200000  0.57770000  1.0 -0.2767413093
O  O103  1  0.74100000  0.51800000  0.07770000  1.0 -0.2702942921
O  O104  1  0.25900000  0.01800000  0.42230000  1.0 -0.2702942921
O  O105  1  0.34100000  0.94880000  0.64510000  1.0 -0.7290790572
O  O106  1  0.65900000  0.44880000  0.85490000  1.0 -0.7290790572
O  O107  1  0.65900000  0.05120000  0.35490000  1.0 -0.7290790572
O  O108  1  0.34100000  0.55120000  0.14510000  1.0 -0.7290790572
O  O109  1  0.18700000  0.01390000  0.57610000  1.0 -0.7290790572
O  O110  1  0.81300000  0.51390000  0.92390000  1.0 -0.7290790572
O  O111  1  0.81300000  0.98610000  0.42390000  1.0 -0.7290790572
O  O112  1  0.18700000  0.48610000  0.07610000  1.0 -0.7290790572
O  O113  1  0.99500000  0.34920000  0.97850000  1.0 0.0483292879
O  O114  1  0.00500000  0.84920000  0.52150000  1.0 0.0483292879
O  O115  1  0.00500000  0.65080000  0.02150000  1.0 0.0383238921
O  O116  1  0.99500000  0.15080000  0.47850000  1.0 0.0383238921
O  O117  1  0.99000000  0.21700000  0.96960000  1.0 -0.2407274635
O  O118  1  0.01000000  0.71700000  0.53040000  1.0 -0.2407274635
O  O119  1  0.01000000  0.78300000  0.03040000  1.0 -0.2407274635
O  O120  1  0.99000000  0.28300000  0.46960000  1.0 -0.2407274635
O  O121  1  0.91900000  0.10490000  0.77700000  1.0 -0.7418765558
O  O122  1  0.08100000  0.60490000  0.72300000  1.0 -0.7418765558
O  O123  1  0.08100000  0.89510000  0.22300000  1.0 -0.7418765558
O  O124  1  0.91900000  0.39510000  0.27700000  1.0 -0.7418765558
O  O125  1  0.33300000  0.16380000  0.61730000  1.0 -0.661646439
O  O126  1  0.66700000  0.66380000  0.88270000  1.0 -0.661646439
O  O127  1  0.66700000  0.83620000  0.38270000  1.0 -0.661646439
O  O128  1  0.33300000  0.33620000  0.11730000  1.0 -0.661646439
O  O129  1  0.25300000  0.04410000  0.80050000  1.0 -0.7198865632
O  O130  1  0.74700000  0.54410000  0.69950000  1.0 -0.7290790572
O  O131  1  0.74700000  0.95590000  0.19950000  1.0 -0.7198865632
O  O132  1  0.25300000  0.45590000  0.30050000  1.0 -0.7290790572
O  O133  1  0.14400000  0.99970000  0.88080000  1.0 -0.8574400577
O  O134  1  0.85600000  0.49970000  0.61920000  1.0 -0.8509112789
O  O135  1  0.85600000  0.00030000  0.11920000  1.0 -0.8509112789
O  O136  1  0.14400000  0.50030000  0.38080000  1.0 -0.8509112789
O  O137  1  0.15400000  0.21600000  0.80350000  1.0 -0.7198865632
O  O138  1  0.84600000  0.71600000  0.69650000  1.0 -0.7198865632
O  O139  1  0.84600000  0.78400000  0.19650000  1.0 -0.7198865632
O  O140  1  0.15400000  0.28400000  0.30350000  1.0 -0.7198865632
O  O141  1  0.10200000  0.88900000  0.82270000  1.0 -0.5815906061
O  O142  1  0.89800000  0.38900000  0.67730000  1.0 -0.5815906061
O  O143  1  0.89800000  0.11100000  0.17730000  1.0 -0.5815906061
O  O144  1  0.10200000  0.61100000  0.32270000  1.0 -0.5815906061
O  O145  1  0.31000000  0.93670000  0.82650000  1.0 -0.7990220396
O  O146  1  0.69000000  0.43670000  0.67350000  1.0 -0.7990220396
O  O147  1  0.69000000  0.06330000  0.17350000  1.0 -0.7990220396
O  O148  1  0.31000000  0.56330000  0.32650000  1.0 -0.7990220396
O  O149  1  0.03700000  0.99670000  0.77750000  1.0 -0.8104766517
O  O150  1  0.96300000  0.49670000  0.72250000  1.0 -0.8104766517
O  O151  1  0.96300000  0.00330000  0.22250000  1.0 -0.8104766517
O  O152  1  0.03700000  0.50330000  0.27750000  1.0 -0.8104766517
O  O153  1  0.40800000  0.05000000  0.58830000  1.0 -0.645734085
O  O154  1  0.59200000  0.55000000  0.91170000  1.0 -0.6432590617
O  O155  1  0.59200000  0.95000000  0.41170000  1.0 -0.6432590617
O  O156  1  0.40800000  0.45000000  0.08830000  1.0 -0.645734085
O  O157  1  0.43800000  0.98190000  0.74520000  1.0 -0.6311470701
O  O158  1  0.56200000  0.48190000  0.75480000  1.0 -0.6311470701
O  O159  1  0.56200000  0.01810000  0.25480000  1.0 -0.6311470701
O  O160  1  0.43800000  0.51810000  0.24520000  1.0 -0.6311470701
O  O161  1  0.32040000  0.28030000  0.86950000  1.0 -0.8574400577
O  O162  1  0.67960000  0.78030000  0.63050000  1.0 -0.8574400577
O  O163  1  0.67960000  0.71970000  0.13050000  1.0 -0.8574400577
O  O164  1  0.32040000  0.21970000  0.36950000  1.0 -0.8574400577
O  O165  1  0.41200000  0.29350000  0.98330000  1.0 -0.0819292077
O  O166  1  0.58800000  0.79350000  0.51670000  1.0 -0.0749781786
O  O167  1  0.58800000  0.70650000  0.01670000  1.0 -0.0819292077
O  O168  1  0.41200000  0.20650000  0.48330000  1.0 -0.0819292077
O  O169  1  0.79900000  0.29400000  0.01650000  1.0 -0.2325661166
O  O170  1  0.20100000  0.79400000  0.48350000  1.0 -0.2407274635
O  O171  1  0.20100000  0.70600000  0.98350000  1.0 -0.2407274635
O  O172  1  0.79900000  0.20600000  0.51650000  1.0 -0.2407274635
O  O173  1  0.19300000  0.94150000  0.72600000  1.0 -0.8104766517
O  O174  1  0.80700000  0.44150000  0.77400000  1.0 -0.8104766517
O  O175  1  0.80700000  0.05850000  0.27400000  1.0 -0.8104766517
O  O176  1  0.19300000  0.55850000  0.22600000  1.0 -0.8104766517
O  O177  1  0.98900000  0.20970000  0.72950000  1.0 -0.7683581694
O  O178  1  0.01100000  0.70970000  0.77050000  1.0 -0.7683581694
O  O179  1  0.01100000  0.79030000  0.27050000  1.0 -0.7683581694
O  O180  1  0.98900000  0.29030000  0.22950000  1.0 -0.7683581694
O  O181  1  0.32900000  0.15550000  0.74420000  1.0 -0.8574400577
O  O182  1  0.67100000  0.65550000  0.75580000  1.0 -0.8509112789
O  O183  1  0.67100000  0.84450000  0.25580000  1.0 -0.8574400577
O  O184  1  0.32900000  0.34450000  0.24420000  1.0 -0.8509112789
O  O185  1  0.04800000  0.00210000  0.66360000  1.0 -0.8509112789
O  O186  1  0.95200000  0.50210000  0.83640000  1.0 -0.8509112789
O  O187  1  0.95200000  0.99790000  0.33640000  1.0 -0.8509112789
O  O188  1  0.04800000  0.49790000  0.16360000  1.0 -0.8509112789
O  O189  1  0.35700000  0.04100000  0.89260000  1.0 -0.7496266348
O  O190  1  0.64300000  0.54100000  0.60740000  1.0 -0.7496266348
O  O191  1  0.64300000  0.95900000  0.10740000  1.0 -0.7496266348
O  O192  1  0.35700000  0.45900000  0.39260000  1.0 -0.7496266348
O  O193  1  0.30100000  0.15250000  0.86560000  1.0 -0.7990220396
O  O194  1  0.69900000  0.65250000  0.63440000  1.0 -0.789572662
O  O195  1  0.69900000  0.84750000  0.13440000  1.0 -0.789572662
O  O196  1  0.30100000  0.34750000  0.36560000  1.0 -0.789572662
O  O197  1  0.12300000  0.12560000  0.60460000  1.0 -0.6215731336
O  O198  1  0.87700000  0.62560000  0.89540000  1.0 -0.6215731336
O  O199  1  0.87700000  0.87440000  0.39540000  1.0 -0.6215731336
O  O200  1  0.12300000  0.37440000  0.10460000  1.0 -0.6215731336
O  O201  1  0.63500000  0.15300000  0.75890000  1.0 -0.5206363036
O  O202  1  0.36500000  0.65300000  0.74110000  1.0 -0.5206363036
O  O203  1  0.36500000  0.84700000  0.24110000  1.0 -0.5206363036
O  O204  1  0.63500000  0.34700000  0.25890000  1.0 -0.5206363036
