# DDEC6 charges by PACMAN v1.1 (https://github.com/mtap-research/PACMAN-charge/)
data_ZAZSIG_ASR_pacman
_symmetry_space_group_name_H-M   'P 1'
_cell_length_a   18.57990000
_cell_length_b   18.57990000
_cell_length_c   14.97350000
_cell_angle_alpha   78.61940000
_cell_angle_beta   101.38100000
_cell_angle_gamma   66.21390000
_symmetry_Int_Tables_number   1
_chemical_formula_structural   EuH6C26S8Cl(O2F3)2
_chemical_formula_sum   'Eu4 H24 C104 S32 Cl4 O16 F24'
_cell_volume   4410.50837791
_cell_formula_units_Z   4
loop_
 _symmetry_equiv_pos_site_id
 _symmetry_equiv_pos_as_xyz
  1  'x, y, z'
loop_
 _atom_site_type_symbol
 _atom_site_label
 _atom_site_symmetry_multiplicity
 _atom_site_fract_x
 _atom_site_fract_y
 _atom_site_fract_z
 _atom_site_occupancy
 _atom_site_charge
Eu  Eu1  1  0.90468000  0.58622000  0.52365000  1.0 2.083729655
Eu  Eu2  1  0.58622000  0.90468000  0.47635000  1.0 2.083729655
Eu  Eu3  1  0.09532000  0.41378000  0.47635000  1.0 2.083729655
Eu  Eu4  1  0.41378000  0.09532000  0.52365000  1.0 2.083729655
H  H1  1  0.89523000  0.92153000  0.22107000  1.0 0.1484182426
H  H2  1  0.97212000  0.95632000  0.12465000  1.0 0.1187362917
H  H3  1  0.06666000  0.84272000  0.08246000  1.0 0.1484182426
H  H4  1  0.84522000  0.60622000  0.85001000  1.0 0.1484182426
H  H5  1  0.97445000  0.48905000  0.86066000  1.0 0.1302546267
H  H6  1  0.99753000  0.35453000  0.95778000  1.0 0.1484182426
H  H7  1  0.92153000  0.89523000  0.77893000  1.0 0.1484182426
H  H8  1  0.95632000  0.97212000  0.87535000  1.0 0.1187362917
H  H9  1  0.84272000  0.06666000  0.91754000  1.0 0.1484182426
H  H10  1  0.60622000  0.84522000  0.14999000  1.0 0.1484182426
H  H11  1  0.48905000  0.97445000  0.13934000  1.0 0.1302546267
H  H12  1  0.35453000  0.99753000  0.04222000  1.0 0.1484182426
H  H13  1  0.10477000  0.07847000  0.77893000  1.0 0.1484182426
H  H14  1  0.02788000  0.04368000  0.87535000  1.0 0.1187362917
H  H15  1  0.93334000  0.15728000  0.91754000  1.0 0.1484182426
H  H16  1  0.15478000  0.39378000  0.14999000  1.0 0.1484182426
H  H17  1  0.02555000  0.51095000  0.13934000  1.0 0.1302546267
H  H18  1  0.00247000  0.64547000  0.04222000  1.0 0.1484182426
H  H19  1  0.07847000  0.10477000  0.22107000  1.0 0.1484182426
H  H20  1  0.04368000  0.02788000  0.12465000  1.0 0.1187362917
H  H21  1  0.15728000  0.93334000  0.08246000  1.0 0.1484182426
H  H22  1  0.39378000  0.15478000  0.85001000  1.0 0.1484182426
H  H23  1  0.51095000  0.02555000  0.86066000  1.0 0.1302546267
H  H24  1  0.64547000  0.00247000  0.95778000  1.0 0.1484182426
C  C1  1  0.96230000  0.55090000  0.31700000  1.0 0.6526631717
C  C2  1  0.89480000  0.61260000  0.22280000  1.0 -0.1178810911
C  C3  1  0.85840000  0.58280000  0.15910000  1.0 0.2291676704
C  C4  1  0.80240000  0.63400000  0.07080000  1.0 -0.0972407623
C  C5  1  0.77890000  0.71950000  0.04950000  1.0 -0.032816242
C  C6  1  0.81440000  0.74760000  0.11540000  1.0 0.1774212842
C  C7  1  0.87120000  0.69620000  0.20010000  1.0 -0.0640283446
C  C8  1  0.93510000  0.80650000  0.20680000  1.0 -0.0489797352
C  C9  1  0.92870000  0.88390000  0.19490000  1.0 -0.1178810911
C  C10  1  0.97590000  0.90310000  0.14100000  1.0 -0.0747607495
C  C11  1  0.02680000  0.84280000  0.11300000  1.0 -0.2158730721
C  C12  1  0.83050000  0.52930000  0.95970000  1.0 -0.0411488974
C  C13  1  0.86640000  0.55240000  0.89190000  1.0 -0.1307052295
C  C14  1  0.93920000  0.48320000  0.89500000  1.0 -0.0489797352
C  C15  1  0.95560000  0.40620000  0.95300000  1.0 -0.2131491717
C  C16  1  0.08990000  0.72270000  0.48200000  1.0 0.0941433568
C  C17  1  0.13330000  0.76730000  0.48700000  1.0 -0.0411488974
C  C18  1  0.25460000  0.64740000  0.56200000  1.0 0.0708040375
C  C19  1  0.21160000  0.60060000  0.56400000  1.0 -0.0084921015
C  C20  1  0.08350000  0.59110000  0.51510000  1.0 0.6810227786
C  C21  1  0.22140000  0.73080000  0.52040000  1.0 -0.0411488974
C  C22  1  0.13380000  0.63980000  0.52290000  1.0 -0.0489797352
C  C23  1  0.17030000  0.64890000  0.60750000  1.0 0.0061943167
C  C24  1  0.21400000  0.69440000  0.60630000  1.0 0.062352289
C  C25  1  0.18500000  0.72160000  0.43570000  1.0 -0.0489797352
C  C26  1  0.14130000  0.67610000  0.43700000  1.0 0.0941433568
C  C27  1  0.55090000  0.96230000  0.68300000  1.0 0.6526631717
C  C28  1  0.61260000  0.89480000  0.77720000  1.0 -0.1178810911
C  C29  1  0.58280000  0.85840000  0.84090000  1.0 0.2291676704
C  C30  1  0.63400000  0.80240000  0.92920000  1.0 -0.0972407623
C  C31  1  0.71950000  0.77890000  0.95050000  1.0 -0.032816242
C  C32  1  0.74760000  0.81440000  0.88460000  1.0 0.1774212842
C  C33  1  0.69620000  0.87120000  0.79990000  1.0 -0.0640283446
C  C34  1  0.80650000  0.93510000  0.79320000  1.0 -0.0489797352
C  C35  1  0.88390000  0.92870000  0.80510000  1.0 -0.1178810911
C  C36  1  0.90310000  0.97590000  0.85900000  1.0 -0.0751439031
C  C37  1  0.84280000  0.02680000  0.88700000  1.0 -0.2131491717
C  C38  1  0.52930000  0.83050000  0.04030000  1.0 -0.0411488974
C  C39  1  0.55240000  0.86640000  0.10810000  1.0 -0.1307052295
C  C40  1  0.48320000  0.93920000  0.10500000  1.0 -0.0489797352
C  C41  1  0.40620000  0.95560000  0.04700000  1.0 -0.2131491717
C  C42  1  0.72270000  0.08990000  0.51800000  1.0 0.0962432457
C  C43  1  0.76730000  0.13330000  0.51300000  1.0 -0.0411488974
C  C44  1  0.64740000  0.25460000  0.43800000  1.0 0.0708040375
C  C45  1  0.60060000  0.21160000  0.43600000  1.0 -0.0084921015
C  C46  1  0.59110000  0.08350000  0.48490000  1.0 0.6810227786
C  C47  1  0.73080000  0.22140000  0.47960000  1.0 -0.0411488974
C  C48  1  0.63980000  0.13380000  0.47710000  1.0 -0.0489797352
C  C49  1  0.64890000  0.17030000  0.39250000  1.0 0.0033170909
C  C50  1  0.69440000  0.21400000  0.39370000  1.0 0.062352289
C  C51  1  0.72160000  0.18500000  0.56430000  1.0 -0.0489797352
C  C52  1  0.67610000  0.14130000  0.56300000  1.0 0.0941433568
C  C53  1  0.03770000  0.44910000  0.68300000  1.0 0.6526631717
C  C54  1  0.10520000  0.38740000  0.77720000  1.0 -0.1178810911
C  C55  1  0.14160000  0.41720000  0.84090000  1.0 0.2291676704
C  C56  1  0.19760000  0.36600000  0.92920000  1.0 -0.0972407623
C  C57  1  0.22110000  0.28050000  0.95050000  1.0 -0.032816242
C  C58  1  0.18560000  0.25240000  0.88460000  1.0 0.1774212842
C  C59  1  0.12880000  0.30380000  0.79990000  1.0 -0.0640283446
C  C60  1  0.06490000  0.19350000  0.79320000  1.0 -0.0489797352
C  C61  1  0.07130000  0.11610000  0.80510000  1.0 -0.1178810911
C  C62  1  0.02410000  0.09690000  0.85900000  1.0 -0.0747607495
C  C63  1  0.97320000  0.15720000  0.88700000  1.0 -0.2158730721
C  C64  1  0.16950000  0.47070000  0.04030000  1.0 -0.0411488974
C  C65  1  0.13360000  0.44760000  0.10810000  1.0 -0.1307052295
C  C66  1  0.06080000  0.51680000  0.10500000  1.0 -0.0489797352
C  C67  1  0.04440000  0.59380000  0.04700000  1.0 -0.2131491717
C  C68  1  0.91010000  0.27730000  0.51800000  1.0 0.0941433568
C  C69  1  0.86670000  0.23270000  0.51300000  1.0 -0.0411488974
C  C70  1  0.74540000  0.35260000  0.43800000  1.0 0.0708040375
C  C71  1  0.78840000  0.39940000  0.43600000  1.0 -0.0084921015
C  C72  1  0.91650000  0.40890000  0.48490000  1.0 0.6810227786
C  C73  1  0.77860000  0.26920000  0.47960000  1.0 -0.0411488974
C  C74  1  0.86620000  0.36020000  0.47710000  1.0 -0.0411488974
C  C75  1  0.82970000  0.35110000  0.39250000  1.0 0.0033170909
C  C76  1  0.78600000  0.30560000  0.39370000  1.0 0.062352289
C  C77  1  0.81500000  0.27840000  0.56430000  1.0 -0.0489797352
C  C78  1  0.85870000  0.32390000  0.56300000  1.0 0.0962432457
C  C79  1  0.44910000  0.03770000  0.31700000  1.0 0.6526631717
C  C80  1  0.38740000  0.10520000  0.22280000  1.0 -0.1178810911
C  C81  1  0.41720000  0.14160000  0.15910000  1.0 0.2291676704
C  C82  1  0.36600000  0.19760000  0.07080000  1.0 -0.0972407623
C  C83  1  0.28050000  0.22110000  0.04950000  1.0 -0.032816242
C  C84  1  0.25240000  0.18560000  0.11540000  1.0 0.1774212842
C  C85  1  0.30380000  0.12880000  0.20010000  1.0 -0.0640283446
C  C86  1  0.19350000  0.06490000  0.20680000  1.0 -0.0489797352
C  C87  1  0.11610000  0.07130000  0.19490000  1.0 -0.1178810911
C  C88  1  0.09690000  0.02410000  0.14100000  1.0 -0.0747607495
C  C89  1  0.15720000  0.97320000  0.11300000  1.0 -0.2158730721
C  C90  1  0.47070000  0.16950000  0.95970000  1.0 -0.0411488974
C  C91  1  0.44760000  0.13360000  0.89190000  1.0 -0.1307052295
C  C92  1  0.51680000  0.06080000  0.89500000  1.0 -0.0489797352
C  C93  1  0.59380000  0.04440000  0.95300000  1.0 -0.2131491717
C  C94  1  0.27730000  0.91010000  0.48200000  1.0 0.0941433568
C  C95  1  0.23270000  0.86670000  0.48700000  1.0 -0.0411488974
C  C96  1  0.35260000  0.74540000  0.56200000  1.0 0.0708040375
C  C97  1  0.39940000  0.78840000  0.56400000  1.0 -0.0084921015
C  C98  1  0.40890000  0.91650000  0.51510000  1.0 0.6810227786
C  C99  1  0.26920000  0.77860000  0.52040000  1.0 -0.0411488974
C  C100  1  0.36020000  0.86620000  0.52290000  1.0 -0.0489797352
C  C101  1  0.35110000  0.82970000  0.60750000  1.0 0.0061943167
C  C102  1  0.30560000  0.78600000  0.60630000  1.0 0.062352289
C  C103  1  0.27840000  0.81500000  0.43570000  1.0 -0.0489797352
C  C104  1  0.32390000  0.85870000  0.43700000  1.0 0.0962432457
S  S1  1  0.75390000  0.59290000  0.99780000  1.0 0.0962432457
S  S2  1  0.88420000  0.42460000  0.01370000  1.0 0.1856551249
S  S3  1  0.91377000  0.73717000  0.28010000  1.0 0.2102057938
S  S4  1  0.99980000  0.76800000  0.14570000  1.0 0.1989096587
S  S5  1  0.07280000  0.88040000  0.43350000  1.0 0.0061943167
S  S6  1  0.26770000  0.49190000  0.61180000  1.0 -0.1144093122
S  S7  1  0.16450000  0.60350000  0.71490000  1.0 -0.1607624027
S  S8  1  0.19150000  0.77290000  0.32010000  1.0 -0.0007108539
S  S9  1  0.59290000  0.75390000  0.00220000  1.0 0.0962432457
S  S10  1  0.42460000  0.88420000  0.98630000  1.0 0.1774212842
S  S11  1  0.73717000  0.91377000  0.71990000  1.0 0.2102057938
S  S12  1  0.76800000  0.99980000  0.85430000  1.0 0.1989096587
S  S13  1  0.88040000  0.07280000  0.56650000  1.0 0.0061943167
S  S14  1  0.49190000  0.26770000  0.38820000  1.0 -0.1178810911
S  S15  1  0.60350000  0.16450000  0.28510000  1.0 -0.1607624027
S  S16  1  0.77290000  0.19150000  0.67990000  1.0 -0.0007108539
S  S17  1  0.24610000  0.40710000  0.00220000  1.0 0.0962432457
S  S18  1  0.11580000  0.57540000  0.98630000  1.0 0.1856551249
S  S19  1  0.08623000  0.26283000  0.71990000  1.0 0.2102057938
S  S20  1  0.00020000  0.23200000  0.85430000  1.0 0.1989096587
S  S21  1  0.92720000  0.11960000  0.56650000  1.0 0.0061943167
S  S22  1  0.73230000  0.50810000  0.38820000  1.0 -0.1178810911
S  S23  1  0.83550000  0.39650000  0.28510000  1.0 -0.1607624027
S  S24  1  0.80850000  0.22710000  0.67990000  1.0 -0.0007108539
S  S25  1  0.40710000  0.24610000  0.99780000  1.0 0.0962432457
S  S26  1  0.57540000  0.11580000  0.01370000  1.0 0.1989096587
S  S27  1  0.26283000  0.08623000  0.28010000  1.0 0.2102057938
S  S28  1  0.23200000  0.00020000  0.14570000  1.0 0.1989096587
S  S29  1  0.11960000  0.92720000  0.43350000  1.0 0.0061943167
S  S30  1  0.50810000  0.73230000  0.61180000  1.0 -0.1144093122
S  S31  1  0.39650000  0.83550000  0.71490000  1.0 -0.1607624027
S  S32  1  0.22710000  0.80850000  0.32010000  1.0 -0.0007108539
Cl  Cl1  1  0.76882000  0.70084000  0.37740000  1.0 -0.7570336159
Cl  Cl2  1  0.70084000  0.76882000  0.62260000  1.0 -0.7570336159
Cl  Cl3  1  0.23118000  0.29916000  0.62260000  1.0 -0.7570336159
Cl  Cl4  1  0.29916000  0.23118000  0.37740000  1.0 -0.7570336159
O  O1  1  0.95160000  0.55560000  0.39580000  1.0 -0.741950288
O  O2  1  0.02460000  0.49520000  0.30870000  1.0 -0.6036334927
O  O3  1  0.01640000  0.61800000  0.53440000  1.0 -0.6668897416
O  O4  1  0.11790000  0.52630000  0.49160000  1.0 -0.6607205715
O  O5  1  0.55560000  0.95160000  0.60420000  1.0 -0.741950288
O  O6  1  0.49520000  0.02460000  0.69130000  1.0 -0.6036334927
O  O7  1  0.61800000  0.01640000  0.46560000  1.0 -0.6668897416
O  O8  1  0.52630000  0.11790000  0.50840000  1.0 -0.6607205715
O  O9  1  0.04840000  0.44440000  0.60420000  1.0 -0.741950288
O  O10  1  0.97540000  0.50480000  0.69130000  1.0 -0.6036334927
O  O11  1  0.98360000  0.38200000  0.46560000  1.0 -0.6668897416
O  O12  1  0.88210000  0.47370000  0.50840000  1.0 -0.6607205715
O  O13  1  0.44440000  0.04840000  0.39580000  1.0 -0.741950288
O  O14  1  0.50480000  0.97540000  0.30870000  1.0 -0.6036334927
O  O15  1  0.38200000  0.98360000  0.53440000  1.0 -0.6668897416
O  O16  1  0.47370000  0.88210000  0.49160000  1.0 -0.6607205715
F  F1  1  0.88000000  0.49840000  0.18430000  1.0 -0.1307052295
F  F2  1  0.78650000  0.83390000  0.08960000  1.0 -0.1607624027
F  F3  1  0.00720000  0.76320000  0.44270000  1.0 -0.1178810911
F  F4  1  0.33880000  0.61080000  0.59230000  1.0 -0.017717253
F  F5  1  0.25250000  0.70330000  0.68240000  1.0 0.0061943167
F  F6  1  0.10920000  0.66780000  0.34770000  1.0 -0.1758665439
F  F7  1  0.49840000  0.88000000  0.81570000  1.0 -0.1307052295
F  F8  1  0.83390000  0.78650000  0.91040000  1.0 -0.1607624027
F  F9  1  0.76320000  0.00720000  0.55730000  1.0 -0.1178810911
F  F10  1  0.61080000  0.33880000  0.40770000  1.0 -0.017717253
F  F11  1  0.70330000  0.25250000  0.31760000  1.0 0.0061943167
F  F12  1  0.66780000  0.10920000  0.65230000  1.0 -0.1732074614
F  F13  1  0.12000000  0.50160000  0.81570000  1.0 -0.1307052295
F  F14  1  0.21350000  0.16610000  0.91040000  1.0 -0.1607624027
F  F15  1  0.99280000  0.23680000  0.55730000  1.0 -0.1178810911
F  F16  1  0.66120000  0.38920000  0.40770000  1.0 -0.017717253
F  F17  1  0.74750000  0.29670000  0.31760000  1.0 0.0061943167
F  F18  1  0.89080000  0.33220000  0.65230000  1.0 -0.1732074614
F  F19  1  0.50160000  0.12000000  0.18430000  1.0 -0.1307052295
F  F20  1  0.16610000  0.21350000  0.08960000  1.0 -0.1607624027
F  F21  1  0.23680000  0.99280000  0.44270000  1.0 -0.1178810911
F  F22  1  0.38920000  0.66120000  0.59230000  1.0 -0.017717253
F  F23  1  0.29670000  0.74750000  0.68240000  1.0 0.0061943167
F  F24  1  0.33220000  0.89080000  0.34770000  1.0 -0.1758665439
