# DDEC6 charges by PACMAN v1.1 (https://github.com/mtap-research/PACMAN-charge/)
data_ZEBMEA_FSR_pacman
_symmetry_space_group_name_H-M   'P 1'
_cell_length_a   11.91900000
_cell_length_b   14.01000000
_cell_length_c   14.83740000
_cell_angle_alpha   118.38200000
_cell_angle_beta   111.44800000
_cell_angle_gamma   83.58300000
_symmetry_Int_Tables_number   1
_chemical_formula_structural   Eu2SiH29C35N3O16
_chemical_formula_sum   'Eu4 Si2 H58 C70 N6 O32'
_cell_volume   2023.02490888
_cell_formula_units_Z   2
loop_
 _symmetry_equiv_pos_site_id
 _symmetry_equiv_pos_as_xyz
  1  'x, y, z'
loop_
 _atom_site_type_symbol
 _atom_site_label
 _atom_site_symmetry_multiplicity
 _atom_site_fract_x
 _atom_site_fract_y
 _atom_site_fract_z
 _atom_site_occupancy
 _atom_site_charge
Eu  Eu1  1  0.49203000  0.86361000  0.63838000  1.0 1.8927713862
Eu  Eu2  1  0.50797000  0.13639000  0.36162000  1.0 1.8927713862
Eu  Eu3  1  0.55483000  0.54019000  0.52219000  1.0 1.1495790115
Eu  Eu4  1  0.44517000  0.45981000  0.47781000  1.0 1.1495790115
Si  Si1  1  0.78750000  0.55180000  0.08860000  1.0 0.6593660941
Si  Si2  1  0.21250000  0.44820000  0.91140000  1.0 0.6593660941
H  H1  1  0.59500000  0.70070000  0.14100000  1.0 0.1100809301
H  H2  1  0.40500000  0.29930000  0.85900000  1.0 0.1100809301
H  H3  1  0.83090000  0.36770000  0.90350000  1.0 0.1100809301
H  H4  1  0.16910000  0.63230000  0.09650000  1.0 0.1100809301
H  H5  1  0.65180000  0.39310000  0.09490000  1.0 0.1039777813
H  H6  1  0.34820000  0.60690000  0.90510000  1.0 0.1039777813
H  H7  1  0.95240000  0.74720000  0.24820000  1.0 0.1100809301
H  H8  1  0.04760000  0.25280000  0.75180000  1.0 0.1100809301
H  H9  1  0.75700000  0.62460000  0.43160000  1.0 0.1100809301
H  H10  1  0.24300000  0.37540000  0.56840000  1.0 0.1100809301
H  H11  1  0.00780000  0.43080000  0.10020000  1.0 0.1100809301
H  H12  1  0.99220000  0.56920000  0.89980000  1.0 0.1100809301
H  H13  1  0.83170000  0.54850000  0.29130000  1.0 0.1100809301
H  H14  1  0.16830000  0.45150000  0.70870000  1.0 0.1100809301
H  H15  1  0.76660000  0.18520000  0.79450000  1.0 0.1191719851
H  H16  1  0.23340000  0.81480000  0.20550000  1.0 0.1191719851
H  H17  1  0.58620000  0.21100000  0.98530000  1.0 0.1191719851
H  H18  1  0.41380000  0.78900000  0.01470000  1.0 0.1191719851
H  H19  1  0.20500000  0.46730000  0.22050000  1.0 0.1039777813
H  H20  1  0.79500000  0.53270000  0.77950000  1.0 0.1039777813
H  H21  1  0.57610000  0.49940000  0.89370000  1.0 0.1100809301
H  H22  1  0.42390000  0.50060000  0.10630000  1.0 0.1100809301
H  H23  1  0.14470000  0.78160000  0.37250000  1.0 0.1100809301
H  H24  1  0.85530000  0.21840000  0.62750000  1.0 0.1100809301
H  H25  1  0.52680000  0.78420000  0.28400000  1.0 0.1191719851
H  H26  1  0.47320000  0.21580000  0.71600000  1.0 0.1191719851
H  H27  1  0.84940000  0.72990000  0.05440000  1.0 0.1100809301
H  H28  1  0.15060000  0.27010000  0.94560000  1.0 0.1100809301
H  H29  1  0.49210000  0.56220000  0.76660000  1.0 0.1100809301
H  H30  1  0.50790000  0.43780000  0.23340000  1.0 0.1100809301
H  H31  1  0.76040000  0.79190000  0.93010000  1.0 0.1191719851
H  H32  1  0.23960000  0.20810000  0.06990000  1.0 0.1191719851
H  H33  1  0.07220000  0.11840000  0.54230000  1.0 0.1191719851
H  H34  1  0.92780000  0.88160000  0.45770000  1.0 0.1191719851
H  H35  1  0.19860000  0.14360000  0.63650000  1.0 0.1290637683
H  H36  1  0.80140000  0.85640000  0.36350000  1.0 0.1290637683
H  H37  1  0.12510000  0.03190000  0.58230000  1.0 0.1290637683
H  H38  1  0.87490000  0.96810000  0.41770000  1.0 0.1290637683
H  H39  1  0.07440000  0.08920000  0.39050000  1.0 0.1290637683
H  H40  1  0.92560000  0.91080000  0.60950000  1.0 0.1290637683
H  H41  1  0.12940000  0.98230000  0.32650000  1.0 0.1290637683
H  H42  1  0.87060000  0.01770000  0.67350000  1.0 0.1290637683
H  H43  1  0.20280000  0.09490000  0.38610000  1.0 0.1456087461
H  H44  1  0.79720000  0.90510000  0.61390000  1.0 0.1456087461
H  H45  1  0.34020000  0.96080000  0.45600000  1.0 0.1290637683
H  H46  1  0.65980000  0.03920000  0.54400000  1.0 0.1290637683
H  H47  1  0.01670000  0.65010000  0.57260000  1.0 0.1387771076
H  H48  1  0.98330000  0.34990000  0.42740000  1.0 0.1387771076
H  H49  1  0.05230000  0.65580000  0.48340000  1.0 0.1290637683
H  H50  1  0.94770000  0.34420000  0.51660000  1.0 0.1290637683
H  H51  1  0.99730000  0.75510000  0.55800000  1.0 0.1290637683
H  H52  1  0.00270000  0.24490000  0.44200000  1.0 0.1290637683
H  H53  1  0.16880000  0.65320000  0.70460000  1.0 0.1290637683
H  H54  1  0.83120000  0.34680000  0.29540000  1.0 0.1290637683
H  H55  1  0.25090000  0.76230000  0.78310000  1.0 0.1387771076
H  H56  1  0.74910000  0.23770000  0.21690000  1.0 0.1387771076
H  H57  1  0.29330000  0.66410000  0.69560000  1.0 0.1290637683
H  H58  1  0.70670000  0.33590000  0.30440000  1.0 0.1290637683
C  C1  1  0.95430000  0.58250000  0.16300000  1.0 -0.2306305388
C  C2  1  0.04570000  0.41750000  0.83700000  1.0 -0.2306305388
C  C3  1  0.62930000  0.68660000  0.20030000  1.0 -0.0834943953
C  C4  1  0.37070000  0.31340000  0.79970000  1.0 -0.0834943953
C  C5  1  0.74770000  0.40160000  0.01020000  1.0 -0.2194856921
C  C6  1  0.25230000  0.59840000  0.98980000  1.0 -0.2194856921
C  C7  1  0.72150000  0.61590000  0.19870000  1.0 -0.2306305388
C  C8  1  0.27850000  0.38410000  0.80130000  1.0 -0.2353226015
C  C9  1  0.78120000  0.33680000  0.92020000  1.0 -0.0834943953
C  C10  1  0.21880000  0.66320000  0.07980000  1.0 -0.0834943953
C  C11  1  0.72240000  0.60730000  0.98850000  1.0 -0.2067088256
C  C12  1  0.27760000  0.39270000  0.01150000  1.0 -0.2067088256
C  C13  1  0.67440000  0.35220000  0.03420000  1.0 -0.0834943953
C  C14  1  0.32560000  0.64780000  0.96580000  1.0 -0.0834943953
C  C15  1  0.00130000  0.68990000  0.24460000  1.0 -0.0998625708
C  C16  1  0.99870000  0.31010000  0.75540000  1.0 -0.0998625708
C  C17  1  0.72570000  0.64160000  0.37410000  1.0 -0.0998625708
C  C18  1  0.27430000  0.35840000  0.62590000  1.0 -0.0998625708
C  C19  1  0.03450000  0.50160000  0.15560000  1.0 -0.0834943953
C  C20  1  0.96550000  0.49840000  0.84440000  1.0 -0.0834943953
C  C21  1  0.63640000  0.71290000  0.37470000  1.0 -0.0085872348
C  C22  1  0.36360000  0.28710000  0.62530000  1.0 -0.0085872348
C  C23  1  0.76950000  0.59470000  0.28890000  1.0 -0.0926337497
C  C24  1  0.23050000  0.40530000  0.71110000  1.0 -0.0926337497
C  C25  1  0.19290000  0.62720000  0.31220000  1.0 -0.0175524102
C  C26  1  0.80710000  0.37280000  0.68780000  1.0 -0.0175524102
C  C27  1  0.74250000  0.22690000  0.85410000  1.0 -0.0998625708
C  C28  1  0.25750000  0.77310000  0.14590000  1.0 -0.0998625708
C  C29  1  0.63490000  0.24250000  0.96840000  1.0 -0.0998625708
C  C30  1  0.36510000  0.75750000  0.03160000  1.0 -0.0998625708
C  C31  1  0.15290000  0.52290000  0.22820000  1.0 -0.0926337497
C  C32  1  0.84710000  0.47710000  0.77180000  1.0 -0.0926337497
C  C33  1  0.61490000  0.55800000  0.90090000  1.0 -0.0926337497
C  C34  1  0.38510000  0.44200000  0.09910000  1.0 -0.0834943953
C  C35  1  0.11680000  0.71060000  0.31790000  1.0 -0.1183756249
C  C36  1  0.88320000  0.28940000  0.68210000  1.0 -0.1183756249
C  C37  1  0.58700000  0.73610000  0.28510000  1.0 -0.0926337497
C  C38  1  0.41300000  0.26390000  0.71490000  1.0 -0.0998625708
C  C39  1  0.59120000  0.76910000  0.46910000  1.0 0.567841672
C  C40  1  0.40880000  0.23090000  0.53090000  1.0 0.567841672
C  C41  1  0.77720000  0.69540000  0.99710000  1.0 -0.0729234362
C  C42  1  0.22280000  0.30460000  0.00290000  1.0 -0.0729234362
C  C43  1  0.62080000  0.68090000  0.83190000  1.0 0.0122416388
C  C44  1  0.37920000  0.31910000  0.16810000  1.0 0.0122416388
C  C45  1  0.56470000  0.59550000  0.82410000  1.0 -0.1492701838
C  C46  1  0.43530000  0.40450000  0.17590000  1.0 -0.1492701838
C  C47  1  0.72440000  0.73080000  0.92110000  1.0 -0.1328086922
C  C48  1  0.27560000  0.26920000  0.07890000  1.0 -0.1328086922
C  C49  1  0.66820000  0.17990000  0.87730000  1.0 -0.0085872348
C  C50  1  0.33180000  0.82010000  0.12270000  1.0 -0.0085872348
C  C51  1  0.61560000  0.06510000  0.80040000  1.0 0.567841672
C  C52  1  0.38440000  0.93490000  0.19960000  1.0 0.567841672
C  C53  1  0.31520000  0.64810000  0.40160000  1.0 0.6381126871
C  C54  1  0.68480000  0.35190000  0.59840000  1.0 0.6381126871
C  C55  1  0.14480000  0.08770000  0.56930000  1.0 -0.3230759272
C  C56  1  0.85520000  0.91230000  0.43070000  1.0 -0.3230759272
C  C57  1  0.14760000  0.05290000  0.38950000  1.0 -0.3401431063
C  C58  1  0.85240000  0.94710000  0.61050000  1.0 -0.3401431063
C  C59  1  0.30720000  0.99220000  0.51080000  1.0 0.3305030396
C  C60  1  0.69280000  0.00780000  0.48920000  1.0 0.3305030396
C  C61  1  0.23200000  0.80900000  0.63000000  1.0 0.2249010882
C  C62  1  0.76800000  0.19100000  0.37000000  1.0 0.2249010882
C  C63  1  0.04900000  0.69700000  0.55600000  1.0 -0.3230759272
C  C64  1  0.95100000  0.30300000  0.44400000  1.0 -0.3230759272
C  C65  1  0.22500000  0.70200000  0.71000000  1.0 -0.3025088677
C  C66  1  0.77500000  0.29800000  0.29000000  1.0 -0.3025088677
C  C67  1  0.58600000  0.74190000  0.76800000  1.0 0.2961486509
C  C68  1  0.41400000  0.25810000  0.23200000  1.0 0.2961486509
C  C69  1  0.55300000  0.68900000  0.72400000  1.0 0.3085572651
C  C70  1  0.44700000  0.31100000  0.27600000  1.0 0.3085572651
N  N1  1  0.20270000  0.04130000  0.48920000  1.0 0.0122416388
N  N2  1  0.79730000  0.95870000  0.51080000  1.0 0.0122416388
N  N3  1  0.16700000  0.74100000  0.63400000  1.0 0.0314100483
N  N4  1  0.83300000  0.25900000  0.36600000  1.0 0.0314100483
N  N5  1  0.82500000  0.57070000  0.60870000  1.0 0.5095988443
N  N6  1  0.17500000  0.42930000  0.39130000  1.0 0.5095988443
O  O1  1  0.38140000  0.57070000  0.39280000  1.0 -0.6599091062
O  O2  1  0.61860000  0.42930000  0.60720000  1.0 -0.6599091062
O  O3  1  0.53250000  0.03050000  0.81410000  1.0 -0.6037599811
O  O4  1  0.46750000  0.96950000  0.18590000  1.0 -0.6037599811
O  O5  1  0.34090000  0.74240000  0.48070000  1.0 -0.6599091062
O  O6  1  0.65910000  0.25760000  0.51930000  1.0 -0.6599091062
O  O7  1  0.61530000  0.73130000  0.53550000  1.0 -0.6732905874
O  O8  1  0.38470000  0.26870000  0.46450000  1.0 -0.6732905874
O  O9  1  0.53350000  0.85090000  0.48100000  1.0 -0.5943962703
O  O10  1  0.46650000  0.14910000  0.51900000  1.0 -0.5943962703
O  O11  1  0.65210000  0.00650000  0.72250000  1.0 -0.6281620035
O  O12  1  0.34790000  0.99350000  0.27750000  1.0 -0.6281620035
O  O13  1  0.33710000  0.85200000  0.70080000  1.0 -0.6219278345
O  O14  1  0.66290000  0.14800000  0.29920000  1.0 -0.6219278345
O  O15  1  0.35980000  0.98560000  0.59110000  1.0 -0.4774528215
O  O16  1  0.64020000  0.01440000  0.40890000  1.0 -0.4774528215
O  O17  1  0.76250000  0.63150000  0.66970000  1.0 -0.5182890067
O  O18  1  0.23750000  0.36850000  0.33030000  1.0 -0.5182890067
O  O19  1  0.75910000  0.49900000  0.51440000  1.0 -0.3025088677
O  O20  1  0.24090000  0.50100000  0.48560000  1.0 -0.3025088677
O  O21  1  0.92900000  0.57680000  0.63800000  1.0 -0.3101814309
O  O22  1  0.07100000  0.42320000  0.36200000  1.0 -0.3101814309
O  O23  1  0.51520000  0.68670000  0.67210000  1.0 -0.0175524102
O  O24  1  0.48480000  0.31330000  0.32790000  1.0 -0.0175524102
O  O25  1  0.63170000  0.83670000  0.79660000  1.0 -0.162264652
O  O26  1  0.36830000  0.16330000  0.20340000  1.0 -0.162264652
O  O27  1  0.62790000  0.53340000  0.48550000  1.0 -0.3691107401
O  O28  1  0.37210000  0.46660000  0.51450000  1.0 -0.3691107401
O  O29  1  0.58850000  0.77540000  0.73820000  1.0 0.000465153
O  O30  1  0.41150000  0.22460000  0.26180000  1.0 0.000465153
O  O31  1  0.47390000  0.62290000  0.63700000  1.0 -0.3025088677
O  O32  1  0.52610000  0.37710000  0.36300000  1.0 -0.3025088677
