# DDEC6 charges by PACMAN v1.1 (https://github.com/mtap-research/PACMAN-charge/)
data_ZEFDIA_FSR_pacman
_symmetry_space_group_name_H-M   'P 1'
_cell_length_a   9.92500000
_cell_length_b   11.91100000
_cell_length_c   23.61040000
_cell_angle_alpha   75.00060000
_cell_angle_beta   80.02790000
_cell_angle_gamma   79.53000000
_symmetry_Int_Tables_number   1
_chemical_formula_structural   DyH33C51NO9
_chemical_formula_sum   'Dy2 H66 C102 N2 O18'
_cell_volume   2627.67505783
_cell_formula_units_Z   2
loop_
 _symmetry_equiv_pos_site_id
 _symmetry_equiv_pos_as_xyz
  1  'x, y, z'
loop_
 _atom_site_type_symbol
 _atom_site_label
 _atom_site_symmetry_multiplicity
 _atom_site_fract_x
 _atom_site_fract_y
 _atom_site_fract_z
 _atom_site_occupancy
 _atom_site_charge
Dy  Dy1  1  0.73746000  0.01777000  0.50516000  1.0 2.1289477054
Dy  Dy2  1  0.26254000  0.98223000  0.49484000  1.0 2.1289477054
H  H1  1  0.53800000  0.18100000  0.46000000  1.0 0.3598200533
H  H2  1  0.95500000  0.86880000  0.46900000  1.0 0.3598200533
H  H3  1  0.13930000  0.73990000  0.67550000  1.0 0.1391977522
H  H4  1  0.07070000  0.64880000  0.77230000  1.0 0.1277936287
H  H5  1  0.69330000  0.83700000  0.76260000  1.0 0.1214780782
H  H6  1  0.76000000  0.92430000  0.66520000  1.0 0.1277936287
H  H7  1  0.54200000  0.75870000  0.88930000  1.0 0.1214780782
H  H8  1  0.33600000  0.85040000  0.92490000  1.0 0.1113647571
H  H9  1  0.25270000  0.80140000  0.02550000  1.0 0.1113647571
H  H10  1  0.37300000  0.65690000  0.08870000  1.0 0.1214780782
H  H11  1  0.78150000  0.34660000  0.12290000  1.0 0.1214780782
H  H12  1  0.98060000  0.24650000  0.08650000  1.0 0.1113647571
H  H13  1  0.06710000  0.29950000  0.98600000  1.0 0.1113647571
H  H14  1  0.95470000  0.45180000  0.92370000  1.0 0.1214780782
H  H15  1  0.61130000  0.28500000  0.26110000  1.0 0.1214780782
H  H16  1  0.51330000  0.20800000  0.35600000  1.0 0.1277936287
H  H17  1  0.17080000  0.44120000  0.33030000  1.0 0.1214780782
H  H18  1  0.26680000  0.51800000  0.23540000  1.0 0.1277936287
H  H19  1  0.64150000  0.28350000  0.54920000  1.0 0.1277936287
H  H20  1  0.90730000  0.24490000  0.65170000  1.0 0.1466336849
H  H21  1  0.85540000  0.13190000  0.64630000  1.0 0.1466336849
H  H22  1  0.78110000  0.19760000  0.69530000  1.0 0.1277936287
H  H23  1  0.80900000  0.98030000  0.35820000  1.0 0.1391977522
H  H24  1  0.92200000  0.98340000  0.26400000  1.0 0.1277936287
H  H25  1  0.57280000  0.94110000  0.21440000  1.0 0.1277936287
H  H26  1  0.46300000  0.93550000  0.30930000  1.0 0.1277936287
H  H27  1  0.69620000  0.91130000  0.07450000  1.0 0.1214780782
H  H28  1  0.57850000  0.88370000  0.00590000  1.0 0.1214780782
H  H29  1  0.66850000  0.92450000  0.90600000  1.0 0.1214780782
H  H30  1  0.88030000  0.98280000  0.87610000  1.0 0.1277936287
H  H31  1  0.64840000  0.44400000  0.61160000  1.0 0.1391977522
H  H32  1  0.64620000  0.36270000  0.67560000  1.0 0.1277936287
H  H33  1  0.54240000  0.35410000  0.63430000  1.0 0.1391977522
H  H34  1  0.46200000  0.81900000  0.54000000  1.0 0.3598200533
H  H35  1  0.04500000  0.13120000  0.53100000  1.0 0.3598200533
H  H36  1  0.86070000  0.26010000  0.32450000  1.0 0.1391977522
H  H37  1  0.92930000  0.35120000  0.22770000  1.0 0.1277936287
H  H38  1  0.30670000  0.16300000  0.23740000  1.0 0.1214780782
H  H39  1  0.24000000  0.07570000  0.33480000  1.0 0.1214780782
H  H40  1  0.45800000  0.24130000  0.11070000  1.0 0.1214780782
H  H41  1  0.66400000  0.14960000  0.07510000  1.0 0.1113647571
H  H42  1  0.74730000  0.19860000  0.97450000  1.0 0.1113647571
H  H43  1  0.62700000  0.34310000  0.91130000  1.0 0.1214780782
H  H44  1  0.21850000  0.65340000  0.87710000  1.0 0.1214780782
H  H45  1  0.01940000  0.75350000  0.91350000  1.0 0.1113647571
H  H46  1  0.93290000  0.70050000  0.01400000  1.0 0.1113647571
H  H47  1  0.04530000  0.54820000  0.07630000  1.0 0.1214780782
H  H48  1  0.38870000  0.71500000  0.73890000  1.0 0.1214780782
H  H49  1  0.48670000  0.79200000  0.64400000  1.0 0.1277936287
H  H50  1  0.82920000  0.55880000  0.66970000  1.0 0.1214780782
H  H51  1  0.73320000  0.48200000  0.76460000  1.0 0.1277936287
H  H52  1  0.35850000  0.71650000  0.45080000  1.0 0.1277936287
H  H53  1  0.09270000  0.75510000  0.34830000  1.0 0.1466336849
H  H54  1  0.14460000  0.86810000  0.35370000  1.0 0.1466336849
H  H55  1  0.21890000  0.80240000  0.30470000  1.0 0.1277936287
H  H56  1  0.19100000  0.01970000  0.64180000  1.0 0.1391977522
H  H57  1  0.07800000  0.01660000  0.73600000  1.0 0.1277936287
H  H58  1  0.42720000  0.05890000  0.78560000  1.0 0.1277936287
H  H59  1  0.53700000  0.06450000  0.69070000  1.0 0.1277936287
H  H60  1  0.30380000  0.08870000  0.92550000  1.0 0.1214780782
H  H61  1  0.42150000  0.11630000  0.99410000  1.0 0.1214780782
H  H62  1  0.33150000  0.07550000  0.09400000  1.0 0.1214780782
H  H63  1  0.11970000  0.01720000  0.12390000  1.0 0.1277936287
H  H64  1  0.35160000  0.55600000  0.38840000  1.0 0.1391977522
H  H65  1  0.35380000  0.63730000  0.32440000  1.0 0.1277936287
H  H66  1  0.45760000  0.64590000  0.36570000  1.0 0.1391977522
C  C1  1  0.99700000  0.89775000  0.59615000  1.0 0.6422987286
C  C2  1  0.95670000  0.84080000  0.66000000  1.0 -0.0154041067
C  C3  1  0.04910000  0.75860000  0.69280000  1.0 -0.0892203434
C  C4  1  0.00820000  0.70437000  0.75093000  1.0 -0.1475673221
C  C5  1  0.87390000  0.73222000  0.77778000  1.0 0.1391977522
C  C6  1  0.78260000  0.81632000  0.74498000  1.0 -0.1398354244
C  C7  1  0.82280000  0.86925000  0.68675000  1.0 -0.1009374574
C  C8  1  0.82620000  0.67522000  0.83708000  1.0 -0.1253484335
C  C9  1  0.77830000  0.63154000  0.88646000  1.0 -0.080673711
C  C10  1  0.71990000  0.59083000  0.94637000  1.0 0.0409166411
C  C11  1  0.59090000  0.64844000  0.96756000  1.0 0.0303323599
C  C12  1  0.50990000  0.73770000  0.92950000  1.0 -0.1475673221
C  C13  1  0.38720000  0.79240000  0.95060000  1.0 -0.0892203434
C  C14  1  0.33630000  0.76214000  0.01126000  1.0 -0.080673711
C  C15  1  0.40840000  0.67637000  0.04883000  1.0 -0.1398354244
C  C16  1  0.53750000  0.61521000  0.02869000  1.0 0.0303323599
C  C17  1  0.61220000  0.52286000  0.06704000  1.0 0.0409166411
C  C18  1  0.73870000  0.46294000  0.04546000  1.0 0.0409166411
C  C19  1  0.81440000  0.36801000  0.08289000  1.0 -0.1398354244
C  C20  1  0.93320000  0.30860000  0.06140000  1.0 -0.0892203434
C  C21  1  0.98550000  0.34100000  0.00060000  1.0 -0.0892203434
C  C22  1  0.91830000  0.43144000  0.96346000  1.0 -0.1204595041
C  C23  1  0.79250000  0.49596000  0.98444000  1.0 0.0409166411
C  C24  1  0.55570000  0.48685000  0.12765000  1.0 -0.0636868026
C  C25  1  0.50780000  0.45267000  0.17793000  1.0 -0.1070688885
C  C26  1  0.44910000  0.40881000  0.23779000  1.0 0.1214780782
C  C27  1  0.52240000  0.31617000  0.27483000  1.0 -0.1583616842
C  C28  1  0.46370000  0.27021000  0.33179000  1.0 -0.080673711
C  C29  1  0.33160000  0.31600000  0.35320000  1.0 -0.0123558819
C  C30  1  0.25920000  0.40944000  0.31636000  1.0 -0.1009374574
C  C31  1  0.31650000  0.45551000  0.25949000  1.0 -0.1475673221
C  C32  1  0.26430000  0.26176000  0.41414000  1.0 0.5892746154
C  C33  1  0.72230000  0.24920000  0.56550000  1.0 0.3242850307
C  C34  1  0.82730000  0.20740000  0.65550000  1.0 -0.3155028072
C  C35  1  0.54850000  0.96154000  0.40416000  1.0 0.6422987286
C  C36  1  0.62440000  0.95899000  0.34321000  1.0 -0.0123558819
C  C37  1  0.76110000  0.97237000  0.32923000  1.0 -0.080673711
C  C38  1  0.82900000  0.97433000  0.27267000  1.0 -0.1475673221
C  C39  1  0.76000000  0.96296000  0.22904000  1.0 0.1391977522
C  C40  1  0.62130000  0.94881000  0.24319000  1.0 -0.1583616842
C  C41  1  0.55550000  0.94614000  0.30006000  1.0 -0.1009374574
C  C42  1  0.82830000  0.96588000  0.16992000  1.0 -0.1009374574
C  C43  1  0.88140000  0.96933000  0.12047000  1.0 -0.0697275546
C  C44  1  0.94280000  0.98164000  0.06006000  1.0 0.0303323599
C  C45  1  0.86810000  0.96327000  0.01843000  1.0 0.0303323599
C  C46  1  0.73480000  0.92543000  0.03497000  1.0 -0.1398354244
C  C47  1  0.66400000  0.90988000  0.99412000  1.0 -0.0892203434
C  C48  1  0.71910000  0.93329000  0.93381000  1.0 -0.0892203434
C  C49  1  0.84510000  0.96851000  0.91609000  1.0 -0.1398354244
C  C50  1  0.92460000  0.98419000  0.95731000  1.0 0.0303323599
C  C51  1  0.63430000  0.36740000  0.63550000  1.0 -0.3115925935
C  C52  1  0.00300000  0.10225000  0.40385000  1.0 0.6422987286
C  C53  1  0.04330000  0.15920000  0.34000000  1.0 -0.0154041067
C  C54  1  0.95090000  0.24140000  0.30720000  1.0 -0.0892203434
C  C55  1  0.99180000  0.29563000  0.24907000  1.0 -0.1475673221
C  C56  1  0.12610000  0.26778000  0.22222000  1.0 0.1391977522
C  C57  1  0.21740000  0.18368000  0.25502000  1.0 -0.1398354244
C  C58  1  0.17720000  0.13075000  0.31325000  1.0 -0.1009374574
C  C59  1  0.17380000  0.32478000  0.16292000  1.0 -0.1253484335
C  C60  1  0.22170000  0.36846000  0.11354000  1.0 -0.080673711
C  C61  1  0.28010000  0.40917000  0.05363000  1.0 0.0409166411
C  C62  1  0.40910000  0.35156000  0.03244000  1.0 0.0303323599
C  C63  1  0.49010000  0.26230000  0.07050000  1.0 -0.1475673221
C  C64  1  0.61280000  0.20760000  0.04940000  1.0 -0.0892203434
C  C65  1  0.66370000  0.23786000  0.98874000  1.0 -0.080673711
C  C66  1  0.59160000  0.32363000  0.95117000  1.0 -0.1398354244
C  C67  1  0.46250000  0.38479000  0.97131000  1.0 0.0303323599
C  C68  1  0.38780000  0.47714000  0.93296000  1.0 0.0409166411
C  C69  1  0.26130000  0.53706000  0.95454000  1.0 0.0409166411
C  C70  1  0.18560000  0.63199000  0.91711000  1.0 -0.1398354244
C  C71  1  0.06680000  0.69140000  0.93860000  1.0 -0.0892203434
C  C72  1  0.01450000  0.65900000  0.99940000  1.0 -0.0892203434
C  C73  1  0.08170000  0.56856000  0.03654000  1.0 -0.1204595041
C  C74  1  0.20750000  0.50404000  0.01556000  1.0 0.0409166411
C  C75  1  0.44430000  0.51315000  0.87235000  1.0 -0.0636868026
C  C76  1  0.49220000  0.54733000  0.82207000  1.0 -0.1070688885
C  C77  1  0.55090000  0.59119000  0.76221000  1.0 0.1214780782
C  C78  1  0.47760000  0.68383000  0.72517000  1.0 -0.1583616842
C  C79  1  0.53630000  0.72979000  0.66821000  1.0 -0.080673711
C  C80  1  0.66840000  0.68400000  0.64680000  1.0 -0.0123558819
C  C81  1  0.74080000  0.59056000  0.68364000  1.0 -0.1009374574
C  C82  1  0.68350000  0.54449000  0.74051000  1.0 -0.1475673221
C  C83  1  0.73570000  0.73824000  0.58586000  1.0 0.5892746154
C  C84  1  0.27770000  0.75080000  0.43450000  1.0 0.3253062073
C  C85  1  0.17270000  0.79260000  0.34450000  1.0 -0.3155028072
C  C86  1  0.45150000  0.03846000  0.59584000  1.0 0.6422987286
C  C87  1  0.37560000  0.04101000  0.65679000  1.0 -0.0123558819
C  C88  1  0.23890000  0.02763000  0.67077000  1.0 -0.080673711
C  C89  1  0.17100000  0.02567000  0.72733000  1.0 -0.1475673221
C  C90  1  0.24000000  0.03704000  0.77096000  1.0 0.1277936287
C  C91  1  0.37870000  0.05119000  0.75681000  1.0 -0.1583616842
C  C92  1  0.44450000  0.05386000  0.69994000  1.0 -0.1009374574
C  C93  1  0.17170000  0.03412000  0.83008000  1.0 -0.1009374574
C  C94  1  0.11860000  0.03067000  0.87953000  1.0 -0.0697275546
C  C95  1  0.05720000  0.01836000  0.93994000  1.0 0.0303323599
C  C96  1  0.13190000  0.03673000  0.98157000  1.0 0.0303323599
C  C97  1  0.26520000  0.07457000  0.96503000  1.0 -0.1398354244
C  C98  1  0.33600000  0.09012000  0.00588000  1.0 -0.0892203434
C  C99  1  0.28090000  0.06671000  0.06619000  1.0 -0.0892203434
C  C100  1  0.15490000  0.03149000  0.08391000  1.0 -0.1398354244
C  C101  1  0.07540000  0.01581000  0.04269000  1.0 0.0303323599
C  C102  1  0.36570000  0.63260000  0.36450000  1.0 -0.3115925935
N  N1  1  0.73070000  0.28200000  0.61350000  1.0 0.0409166411
N  N2  1  0.26930000  0.71800000  0.38650000  1.0 0.0409166411
O  O1  1  0.90340000  0.95786000  0.56754000  1.0 -0.6598558423
O  O2  1  0.12280000  0.88424000  0.57566000  1.0 -0.642264038
O  O3  1  0.14990000  0.31003000  0.43317000  1.0 -0.5162410137
O  O4  1  0.32990000  0.16767000  0.44233000  1.0 -0.6691475209
O  O5  1  0.79490000  0.18571000  0.53849000  1.0 -0.414954811
O  O6  1  0.58950000  0.19382000  0.46598000  1.0 -0.7623682317
O  O7  1  0.89970000  0.86280000  0.46810000  1.0 -0.7161558863
O  O8  1  0.61370000  0.97370000  0.44220000  1.0 -0.6482602057
O  O9  1  0.42290000  0.95098000  0.41252000  1.0 -0.6598558423
O  O10  1  0.09660000  0.04214000  0.43246000  1.0 -0.6598558423
O  O11  1  0.87720000  0.11576000  0.42434000  1.0 -0.642264038
O  O12  1  0.85010000  0.68997000  0.56683000  1.0 -0.5162410137
O  O13  1  0.67010000  0.83233000  0.55767000  1.0 -0.6691475209
O  O14  1  0.20510000  0.81429000  0.46151000  1.0 -0.414954811
O  O15  1  0.41050000  0.80618000  0.53402000  1.0 -0.7623682317
O  O16  1  0.10030000  0.13720000  0.53190000  1.0 -0.7161558863
O  O17  1  0.38630000  0.02630000  0.55780000  1.0 -0.6482602057
O  O18  1  0.57710000  0.04902000  0.58748000  1.0 -0.6598558423
