# DDEC6 charges by PACMAN v1.1 (https://github.com/mtap-research/PACMAN-charge/)
data_ZEGBIZ_FSR_pacman
_symmetry_space_group_name_H-M   'P 1'
_cell_length_a   23.74100000
_cell_length_b   23.74400000
_cell_length_c   23.86800000
_cell_angle_alpha   107.84000000
_cell_angle_beta   111.54000000
_cell_angle_gamma   108.85000000
_symmetry_Int_Tables_number   1
_chemical_formula_structural   Cu4H64C115(NO4)4
_chemical_formula_sum   'Cu8 H128 C230 N8 O32'
_cell_volume   10371.98462760
_cell_formula_units_Z   2
loop_
 _symmetry_equiv_pos_site_id
 _symmetry_equiv_pos_as_xyz
  1  'x, y, z'
loop_
 _atom_site_type_symbol
 _atom_site_label
 _atom_site_symmetry_multiplicity
 _atom_site_fract_x
 _atom_site_fract_y
 _atom_site_fract_z
 _atom_site_occupancy
 _atom_site_charge
Cu  Cu1  1  0.60179000  0.59924000  0.70701000  1.0 0.6765034633
Cu  Cu2  1  0.60861000  0.70039000  0.80108000  1.0 0.7749655383
Cu  Cu3  1  0.60065000  0.19235000  0.30104000  1.0 0.7770385879
Cu  Cu4  1  0.60788000  0.10531000  0.20699000  1.0 0.6662356096
Cu  Cu5  1  0.39821000  0.40076000  0.29299000  1.0 0.6765034633
Cu  Cu6  1  0.39139000  0.29961000  0.19892000  1.0 0.7749655383
Cu  Cu7  1  0.39935000  0.80765000  0.69896000  1.0 0.7770385879
Cu  Cu8  1  0.39212000  0.89469000  0.79301000  1.0 0.6662356096
H  H1  1  0.81950000  0.65530000  0.80020000  1.0 0.1205114173
H  H2  1  0.94000000  0.70420000  0.86490000  1.0 0.1205114173
H  H3  1  0.94730000  0.85020000  0.01370000  1.0 0.1205114173
H  H4  1  0.82680000  0.80140000  0.94910000  1.0 0.1288406678
H  H5  1  0.57600000  0.46330000  0.78970000  1.0 0.1288406678
H  H6  1  0.56570000  0.40170000  0.84830000  1.0 0.1205114173
H  H7  1  0.55070000  0.54370000  0.97810000  1.0 0.1205114173
H  H8  1  0.56110000  0.60530000  0.91950000  1.0 0.1205114173
H  H9  1  0.38080000  0.48460000  0.56460000  1.0 0.1107378124
H  H10  1  0.26010000  0.43500000  0.50140000  1.0 0.1205114173
H  H11  1  0.27170000  0.60100000  0.62990000  1.0 0.1288406678
H  H12  1  0.39240000  0.65060000  0.69310000  1.0 0.1288406678
H  H13  1  0.63870000  0.69220000  0.58540000  1.0 0.1205114173
H  H14  1  0.65210000  0.75480000  0.52820000  1.0 0.1205114173
H  H15  1  0.67270000  0.91230000  0.67750000  1.0 0.1205114173
H  H16  1  0.65940000  0.84970000  0.73470000  1.0 0.1205114173
H  H17  1  0.38560000  0.07530000  0.23530000  1.0 0.1205114173
H  H18  1  0.26560000  0.00550000  0.17770000  1.0 0.1288406678
H  H19  1  0.27310000  0.87680000  0.02790000  1.0 0.1205114173
H  H20  1  0.39310000  0.94660000  0.08540000  1.0 0.1205114173
H  H21  1  0.54260000  0.30050000  0.19310000  1.0 0.1288406678
H  H22  1  0.52930000  0.35830000  0.13020000  1.0 0.1288406678
H  H23  1  0.56640000  0.24130000  0.00130000  1.0 0.1205114173
H  H24  1  0.57970000  0.18360000  0.06420000  1.0 0.1107378124
H  H25  1  0.81380000  0.35830000  0.41860000  1.0 0.1205114173
H  H26  1  0.93400000  0.42790000  0.47810000  1.0 0.1288406678
H  H27  1  0.94800000  0.28360000  0.34970000  1.0 0.1205114173
H  H28  1  0.82780000  0.21410000  0.29020000  1.0 0.1288406678
H  H29  1  0.64720000  0.12130000  0.44840000  1.0 0.1365306439
H  H30  1  0.66630000  0.06970000  0.51300000  1.0 0.1205114173
H  H31  1  0.66290000  0.92770000  0.36770000  1.0 0.1288406678
H  H32  1  0.64620000  0.98100000  0.30170000  1.0 0.1288406678
H  H33  1  0.52600000  0.50990000  0.55330000  1.0 0.1107378124
H  H34  1  0.51590000  0.42140000  0.46640000  1.0 0.1205114173
H  H35  1  0.67020000  0.42590000  0.61670000  1.0 0.1205114173
H  H36  1  0.66780000  0.50980000  0.69600000  1.0 0.1288406678
H  H37  1  0.64980000  0.76020000  0.95300000  1.0 0.1205114173
H  H38  1  0.65350000  0.84300000  0.03610000  1.0 0.1288406678
H  H39  1  0.59120000  0.91210000  0.90470000  1.0 0.1288406678
H  H40  1  0.59130000  0.82630000  0.82470000  1.0 0.1107378124
H  H41  1  0.63960000  0.08960000  0.09130000  1.0 0.1288406678
H  H42  1  0.63770000  0.00840000  0.00270000  1.0 0.1205114173
H  H43  1  0.59730000  0.88370000  0.07850000  1.0 0.1205114173
H  H44  1  0.58900000  0.96720000  0.15530000  1.0 0.1288406678
H  H45  1  0.69070000  0.30100000  0.44900000  1.0 0.1205114173
H  H46  1  0.69480000  0.38240000  0.53650000  1.0 0.1365306439
H  H47  1  0.49290000  0.31270000  0.40720000  1.0 0.1288406678
H  H48  1  0.49690000  0.23270000  0.32560000  1.0 0.1107378124
H  H49  1  0.64600000  0.42560000  0.09630000  1.0 0.1205114173
H  H50  1  0.45290000  0.34990000  0.88580000  1.0 0.1288406678
H  H51  1  0.03490000  0.43270000  0.38560000  1.0 0.1288406678
H  H52  1  0.17100000  0.44990000  0.59550000  1.0 0.1288406678
H  H53  1  0.57420000  0.86470000  0.40770000  1.0 0.1205114173
H  H54  1  0.75520000  0.96350000  0.63330000  1.0 0.1288406678
H  H55  1  0.16980000  0.87360000  0.13160000  1.0 0.1288406678
H  H56  1  0.04260000  0.83710000  0.90940000  1.0 0.1205114173
H  H57  1  0.49940000  0.45360000  0.58520000  1.0 0.1205114173
H  H58  1  0.49850000  0.35700000  0.51300000  1.0 0.1205114173
H  H59  1  0.69230000  0.48580000  0.57440000  1.0 0.1205114173
H  H60  1  0.68560000  0.57160000  0.64350000  1.0 0.1288406678
H  H61  1  0.54310000  0.02720000  0.04950000  1.0 0.1107378124
H  H62  1  0.53530000  0.93690000  0.96950000  1.0 0.1205114173
H  H63  1  0.69610000  0.94930000  0.11550000  1.0 0.1205114173
H  H64  1  0.69290000  0.03360000  0.19510000  1.0 0.1288406678
H  H65  1  0.18050000  0.34470000  0.19980000  1.0 0.1205114173
H  H66  1  0.06000000  0.29580000  0.13510000  1.0 0.1205114173
H  H67  1  0.05270000  0.14980000  0.98630000  1.0 0.1205114173
H  H68  1  0.17320000  0.19860000  0.05090000  1.0 0.1288406678
H  H69  1  0.42400000  0.53670000  0.21030000  1.0 0.1288406678
H  H70  1  0.43430000  0.59830000  0.15170000  1.0 0.1205114173
H  H71  1  0.44930000  0.45630000  0.02190000  1.0 0.1205114173
H  H72  1  0.43890000  0.39470000  0.08050000  1.0 0.1205114173
H  H73  1  0.61920000  0.51540000  0.43540000  1.0 0.1107378124
H  H74  1  0.73990000  0.56500000  0.49860000  1.0 0.1205114173
H  H75  1  0.72830000  0.39900000  0.37010000  1.0 0.1288406678
H  H76  1  0.60760000  0.34940000  0.30690000  1.0 0.1288406678
H  H77  1  0.36130000  0.30780000  0.41460000  1.0 0.1205114173
H  H78  1  0.34790000  0.24520000  0.47180000  1.0 0.1205114173
H  H79  1  0.32730000  0.08770000  0.32250000  1.0 0.1205114173
H  H80  1  0.34060000  0.15030000  0.26530000  1.0 0.1205114173
H  H81  1  0.61440000  0.92470000  0.76470000  1.0 0.1205114173
H  H82  1  0.73440000  0.99450000  0.82230000  1.0 0.1288406678
H  H83  1  0.72690000  0.12320000  0.97210000  1.0 0.1205114173
H  H84  1  0.60690000  0.05340000  0.91460000  1.0 0.1205114173
H  H85  1  0.45740000  0.69950000  0.80690000  1.0 0.1288406678
H  H86  1  0.47070000  0.64170000  0.86980000  1.0 0.1288406678
H  H87  1  0.43360000  0.75870000  0.99870000  1.0 0.1205114173
H  H88  1  0.42030000  0.81640000  0.93580000  1.0 0.1107378124
H  H89  1  0.18620000  0.64170000  0.58140000  1.0 0.1205114173
H  H90  1  0.06600000  0.57210000  0.52190000  1.0 0.1288406678
H  H91  1  0.05200000  0.71640000  0.65030000  1.0 0.1205114173
H  H92  1  0.17220000  0.78590000  0.70980000  1.0 0.1288406678
H  H93  1  0.35280000  0.87870000  0.55160000  1.0 0.1365306439
H  H94  1  0.33370000  0.93030000  0.48700000  1.0 0.1205114173
H  H95  1  0.33710000  0.07230000  0.63230000  1.0 0.1288406678
H  H96  1  0.35380000  0.01900000  0.69830000  1.0 0.1288406678
H  H97  1  0.47400000  0.49010000  0.44670000  1.0 0.1107378124
H  H98  1  0.48410000  0.57860000  0.53360000  1.0 0.1205114173
H  H99  1  0.32980000  0.57410000  0.38330000  1.0 0.1205114173
H  H100  1  0.33220000  0.49020000  0.30400000  1.0 0.1288406678
H  H101  1  0.35020000  0.23980000  0.04700000  1.0 0.1205114173
H  H102  1  0.34650000  0.15700000  0.96390000  1.0 0.1288406678
H  H103  1  0.40880000  0.08790000  0.09530000  1.0 0.1288406678
H  H104  1  0.40870000  0.17370000  0.17530000  1.0 0.1107378124
H  H105  1  0.36040000  0.91040000  0.90870000  1.0 0.1288406678
H  H106  1  0.36230000  0.99160000  0.99730000  1.0 0.1205114173
H  H107  1  0.40270000  0.11630000  0.92150000  1.0 0.1205114173
H  H108  1  0.41100000  0.03280000  0.84470000  1.0 0.1288406678
H  H109  1  0.30930000  0.69900000  0.55100000  1.0 0.1205114173
H  H110  1  0.30520000  0.61760000  0.46350000  1.0 0.1365306439
H  H111  1  0.50710000  0.68730000  0.59280000  1.0 0.1288406678
H  H112  1  0.50310000  0.76730000  0.67440000  1.0 0.1107378124
H  H113  1  0.35400000  0.57440000  0.90370000  1.0 0.1205114173
H  H114  1  0.54710000  0.65010000  0.11420000  1.0 0.1288406678
H  H115  1  0.96510000  0.56730000  0.61440000  1.0 0.1288406678
H  H116  1  0.82900000  0.55010000  0.40450000  1.0 0.1288406678
H  H117  1  0.42580000  0.13530000  0.59230000  1.0 0.1205114173
H  H118  1  0.24480000  0.03650000  0.36670000  1.0 0.1288406678
H  H119  1  0.83020000  0.12640000  0.86840000  1.0 0.1288406678
H  H120  1  0.95740000  0.16290000  0.09060000  1.0 0.1205114173
H  H121  1  0.50060000  0.54640000  0.41480000  1.0 0.1205114173
H  H122  1  0.50150000  0.64300000  0.48700000  1.0 0.1205114173
H  H123  1  0.30770000  0.51420000  0.42560000  1.0 0.1205114173
H  H124  1  0.31440000  0.42840000  0.35650000  1.0 0.1288406678
H  H125  1  0.45690000  0.97280000  0.95050000  1.0 0.1107378124
H  H126  1  0.46470000  0.06310000  0.03050000  1.0 0.1205114173
H  H127  1  0.30390000  0.05070000  0.88450000  1.0 0.1205114173
H  H128  1  0.30710000  0.96640000  0.80490000  1.0 0.1288406678
C  C1  1  0.73490000  0.69280000  0.82660000  1.0 0.5691101092
C  C2  1  0.81150000  0.72360000  0.86840000  1.0 -0.0371250541
C  C3  1  0.84530000  0.69460000  0.84330000  1.0 -0.1100512664
C  C4  1  0.91720000  0.72380000  0.88190000  1.0 -0.1484135683
C  C5  1  0.95530000  0.78190000  0.94560000  1.0 0.0907009996
C  C6  1  0.92150000  0.81090000  0.97070000  1.0 -0.1322902975
C  C7  1  0.84960000  0.78180000  0.93210000  1.0 -0.0900956232
C  C8  1  0.58100000  0.58050000  0.81270000  1.0 0.5603002208
C  C9  1  0.56960000  0.54020000  0.84890000  1.0 -0.0275320544
C  C10  1  0.57090000  0.47950000  0.82770000  1.0 -0.0993991953
C  C11  1  0.56470000  0.44270000  0.86260000  1.0 -0.1395355643
C  C12  1  0.55720000  0.46670000  0.91880000  1.0 0.0907009996
C  C13  1  0.55580000  0.52750000  0.94010000  1.0 -0.1484135683
C  C14  1  0.56200000  0.56420000  0.90510000  1.0 -0.0993991953
C  C15  1  0.47600000  0.60240000  0.67750000  1.0 0.5603002208
C  C16  1  0.39826000  0.57240000  0.63490000  1.0 -0.0208754985
C  C17  1  0.35880000  0.50810000  0.57770000  1.0 -0.1100512664
C  C18  1  0.28680000  0.47850000  0.54000000  1.0 -0.1484135683
C  C19  1  0.25427000  0.51320000  0.55950000  1.0 0.0907009996
C  C20  1  0.29370000  0.57750000  0.61670000  1.0 -0.1484135683
C  C21  1  0.36570000  0.60710000  0.65440000  1.0 -0.0900956232
C  C22  1  0.63370000  0.72350000  0.69990000  1.0 0.5603002208
C  C23  1  0.64770000  0.76490000  0.66560000  1.0 -0.0275320544
C  C24  1  0.64560000  0.73660000  0.60400000  1.0 -0.1100512664
C  C25  1  0.65360000  0.77400000  0.56990000  1.0 -0.1395355643
C  C26  1  0.66370000  0.83960000  0.59730000  1.0 0.0907009996
C  C27  1  0.66590000  0.86790000  0.65890000  1.0 -0.1484135683
C  C28  1  0.65790000  0.83050000  0.69300000  1.0 -0.1100512664
C  C29  1  0.47700000  0.06570000  0.19960000  1.0 0.5549783247
C  C30  1  0.40090000  0.01770000  0.16590000  1.0 -0.0275320544
C  C31  1  0.36290000  0.03520000  0.19350000  1.0 -0.1100512664
C  C32  1  0.29130000  0.99360000  0.15910000  1.0 -0.1484135683
C  C33  1  0.25780000  0.93440000  0.09720000  1.0 0.0988433042
C  C34  1  0.29580000  0.91690000  0.06970000  1.0 -0.1322902975
C  C35  1  0.36740000  0.95850000  0.10410000  1.0 -0.1100512664
C  C36  1  0.57550000  0.20140000  0.17700000  1.0 0.5603002208
C  C37  1  0.56250000  0.23650000  0.13480000  1.0 -0.0275320544
C  C38  1  0.54740000  0.28860000  0.15440000  1.0 -0.0900956232
C  C39  1  0.53940000  0.32300000  0.11690000  1.0 -0.1484135683
C  C40  1  0.54650000  0.30540000  0.05970000  1.0 0.0907009996
C  C41  1  0.56160000  0.25330000  0.04000000  1.0 -0.1484135683
C  C42  1  0.56960000  0.21880000  0.07750000  1.0 -0.1185274844
C  C43  1  0.73190000  0.23270000  0.31280000  1.0 0.5603002208
C  C44  1  0.80920000  0.27950000  0.34870000  1.0 -0.0208754985
C  C45  1  0.84090000  0.34330000  0.40470000  1.0 -0.0900956232
C  C46  1  0.91260000  0.38470000  0.44020000  1.0 -0.1484135683
C  C47  1  0.95260000  0.36250000  0.41960000  1.0 0.0988433042
C  C48  1  0.92090000  0.29870000  0.36360000  1.0 -0.1395355643
C  C49  1  0.84920000  0.25720000  0.32810000  1.0 -0.0993991953
C  C50  1  0.63390000  0.09210000  0.32620000  1.0 0.5691101092
C  C51  1  0.64460000  0.05720000  0.36890000  1.0 -0.0208754985
C  C52  1  0.65010000  0.08170000  0.43140000  1.0 -0.0900956232
C  C53  1  0.65960000  0.05000000  0.46880000  1.0 -0.1185274844
C  C54  1  0.66000000  0.98850000  0.44450000  1.0 0.0800416979
C  C55  1  0.65800000  0.96630000  0.38350000  1.0 -0.1395355643
C  C56  1  0.64920000  0.99840000  0.34430000  1.0 -0.1100512664
C  C57  1  0.55530000  0.49170000  0.56600000  1.0 0.0297139607
C  C58  1  0.54890000  0.43910000  0.51280000  1.0 -0.0993991953
C  C59  1  0.59520000  0.41440000  0.53330000  1.0 0.0800416979
C  C60  1  0.63890000  0.44140000  0.60120000  1.0 -0.0900956232
C  C61  1  0.63780000  0.49260000  0.64880000  1.0 -0.0275320544
C  C62  1  0.63730000  0.79110000  0.94270000  1.0 0.0907009996
C  C63  1  0.63930000  0.84050000  0.99260000  1.0 -0.1769458068
C  C64  1  0.62130000  0.88560000  0.98060000  1.0 0.0988433042
C  C65  1  0.60300000  0.88120000  0.91570000  1.0 -0.2107455371
C  C66  1  0.60310000  0.82930000  0.86800000  1.0 0.1205114173
C  C67  1  0.62810000  0.04630000  0.08740000  1.0 0.0297139607
C  C68  1  0.62900000  0.99820000  0.03490000  1.0 -0.0900956232
C  C69  1  0.61860000  0.93820000  0.03250000  1.0 0.0688221666
C  C70  1  0.60450000  0.92460000  0.07740000  1.0 -0.0900956232
C  C71  1  0.60100000  0.97690000  0.12460000  1.0 -0.0007491782
C  C72  1  0.65010000  0.30400000  0.44020000  1.0 0.1107378124
C  C73  1  0.65340000  0.35360000  0.49340000  1.0 -0.1927825165
C  C74  1  0.59500000  0.35930000  0.48150000  1.0 0.0988433042
C  C75  1  0.53490000  0.31230000  0.41740000  1.0 -0.2011605563
C  C76  1  0.53790000  0.26450000  0.36840000  1.0 0.1107378124
C  C77  1  0.55190000  0.42610000  0.95730000  1.0 0.0111998165
C  C78  1  0.60950000  0.44870000  0.02010000  1.0 0.0416065188
C  C79  1  0.60710000  0.41030000  0.05390000  1.0 -0.1691408617
C  C80  1  0.54710000  0.34940000  0.02480000  1.0 0.0214974021
C  C81  1  0.48950000  0.32680000  0.96210000  1.0 0.0594400407
C  C82  1  0.49190000  0.36520000  0.92830000  1.0 -0.1769458068
C  C83  1  0.17510000  0.47730000  0.52390000  1.0 0.0416065188
C  C84  1  0.13450000  0.47220000  0.46120000  1.0 0.0800416979
C  C85  1  0.06240000  0.43610000  0.42790000  1.0 -0.1617601824
C  C86  1  0.03090000  0.40530000  0.45720000  1.0 0.0111998165
C  C87  1  0.07140000  0.41040000  0.51990000  1.0 -0.0599553951
C  C88  1  0.14350000  0.44640000  0.55320000  1.0 -0.1691408617
C  C89  1  0.66440000  0.87780000  0.55650000  1.0 0.0297139607
C  C90  1  0.61040000  0.84840000  0.48920000  1.0 0.0594400407
C  C91  1  0.61070000  0.88460000  0.45320000  1.0 -0.1691408617
C  C92  1  0.66490000  0.95030000  0.48450000  1.0 0.0214974021
C  C93  1  0.71890000  0.97980000  0.55180000  1.0 0.0594400407
C  C94  1  0.71870000  0.94350000  0.58780000  1.0 -0.1769458068
C  C95  1  0.03400000  0.81860000  0.98430000  1.0 0.0214974021
C  C96  1  0.07190000  0.82950000  0.05060000  1.0 0.0594400407
C  C97  1  0.14420000  0.86630000  0.08680000  1.0 -0.1769458068
C  C98  1  0.17840000  0.89220000  0.05670000  1.0 0.0214974021
C  C99  1  0.14050000  0.88130000  0.99040000  1.0 0.0688221666
C  C100  1  0.06820000  0.84450000  0.95420000  1.0 -0.1691408617
C  C101  1  0.67600000  0.53600000  0.07800000  1.0 -0.0599553951
C  C102  1  0.41310000  0.24470000  0.91470000  1.0 -0.2718784449
C  C103  1  0.17040000  0.49800000  0.41300000  1.0 -0.2718784449
C  C104  1  0.03940000  0.82100000  0.10400000  1.0 -0.1927825165
C  C105  1  0.18870000  0.92900000  0.97200000  1.0 -0.2884549958
C  C106  1  0.54900000  0.76370000  0.44640000  1.0 -0.2624872488
C  C107  1  0.78740000  0.06330000  0.60260000  1.0 -0.2011605563
C  C108  1  0.54070000  0.45850000  0.58610000  1.0 0.0416065188
C  C109  1  0.53750000  0.40080000  0.53850000  1.0 -0.1185274844
C  C110  1  0.65110000  0.47670000  0.57530000  1.0 -0.1100512664
C  C111  1  0.64820000  0.52710000  0.61960000  1.0 -0.0208754985
C  C112  1  0.57220000  0.00930000  0.06420000  1.0 0.0111998165
C  C113  1  0.57070000  0.95840000  0.01580000  1.0 -0.1100512664
C  C114  1  0.66380000  0.96390000  0.10070000  1.0 -0.0993991953
C  C115  1  0.66030000  0.01340000  0.14800000  1.0 -0.0371250541
C  C116  1  0.26510000  0.30720000  0.17340000  1.0 0.5691101092
C  C117  1  0.18850000  0.27640000  0.13160000  1.0 -0.0371250541
C  C118  1  0.15470000  0.30540000  0.15670000  1.0 -0.1100512664
C  C119  1  0.08280000  0.27620000  0.11810000  1.0 -0.1484135683
C  C120  1  0.04470000  0.21810000  0.05440000  1.0 0.0907009996
C  C121  1  0.07850000  0.18910000  0.02930000  1.0 -0.1322902975
C  C122  1  0.15040000  0.21820000  0.06790000  1.0 -0.0900956232
C  C123  1  0.41900000  0.41950000  0.18730000  1.0 0.5603002208
C  C124  1  0.43040000  0.45980000  0.15110000  1.0 -0.0275320544
C  C125  1  0.42910000  0.52050000  0.17230000  1.0 -0.0993991953
C  C126  1  0.43530000  0.55730000  0.13740000  1.0 -0.1395355643
C  C127  1  0.44280000  0.53330000  0.08120000  1.0 0.0907009996
C  C128  1  0.44420000  0.47250000  0.05990000  1.0 -0.1484135683
C  C129  1  0.43800000  0.43580000  0.09490000  1.0 -0.0993991953
C  C130  1  0.52400000  0.39760000  0.32250000  1.0 0.5603002208
C  C131  1  0.60174000  0.42760000  0.36510000  1.0 -0.0208754985
C  C132  1  0.64120000  0.49190000  0.42230000  1.0 -0.1100512664
C  C133  1  0.71320000  0.52150000  0.46000000  1.0 -0.1484135683
C  C134  1  0.74573000  0.48680000  0.44050000  1.0 0.0907009996
C  C135  1  0.70630000  0.42250000  0.38330000  1.0 -0.1484135683
C  C136  1  0.63430000  0.39290000  0.34560000  1.0 -0.0900956232
C  C137  1  0.36630000  0.27650000  0.30010000  1.0 0.5603002208
C  C138  1  0.35230000  0.23510000  0.33440000  1.0 -0.0275320544
C  C139  1  0.35440000  0.26340000  0.39600000  1.0 -0.1100512664
C  C140  1  0.34640000  0.22600000  0.43010000  1.0 -0.1395355643
C  C141  1  0.33630000  0.16040000  0.40270000  1.0 0.0907009996
C  C142  1  0.33410000  0.13210000  0.34110000  1.0 -0.1484135683
C  C143  1  0.34210000  0.16950000  0.30700000  1.0 -0.1100512664
C  C144  1  0.52300000  0.93430000  0.80040000  1.0 0.5549783247
C  C145  1  0.59910000  0.98230000  0.83410000  1.0 -0.0275320544
C  C146  1  0.63710000  0.96480000  0.80650000  1.0 -0.1100512664
C  C147  1  0.70870000  0.00640000  0.84090000  1.0 -0.1484135683
C  C148  1  0.74220000  0.06560000  0.90280000  1.0 0.0988433042
C  C149  1  0.70420000  0.08310000  0.93030000  1.0 -0.1322902975
C  C150  1  0.63260000  0.04150000  0.89590000  1.0 -0.1100512664
C  C151  1  0.42450000  0.79860000  0.82300000  1.0 0.5603002208
C  C152  1  0.43750000  0.76350000  0.86520000  1.0 -0.0275320544
C  C153  1  0.45260000  0.71140000  0.84560000  1.0 -0.0900956232
C  C154  1  0.46060000  0.67700000  0.88310000  1.0 -0.1484135683
C  C155  1  0.45350000  0.69460000  0.94030000  1.0 0.0907009996
C  C156  1  0.43840000  0.74670000  0.96000000  1.0 -0.1484135683
C  C157  1  0.43040000  0.78120000  0.92250000  1.0 -0.1185274844
C  C158  1  0.26810000  0.76730000  0.68720000  1.0 0.5603002208
C  C159  1  0.19080000  0.72050000  0.65130000  1.0 -0.0208754985
C  C160  1  0.15910000  0.65670000  0.59530000  1.0 -0.0900956232
C  C161  1  0.08740000  0.61530000  0.55980000  1.0 -0.1484135683
C  C162  1  0.04740000  0.63750000  0.58040000  1.0 0.0988433042
C  C163  1  0.07910000  0.70130000  0.63640000  1.0 -0.1395355643
C  C164  1  0.15080000  0.74280000  0.67190000  1.0 -0.0993991953
C  C165  1  0.36610000  0.90790000  0.67380000  1.0 0.5691101092
C  C166  1  0.35540000  0.94280000  0.63110000  1.0 -0.0208754985
C  C167  1  0.34990000  0.91830000  0.56860000  1.0 -0.0900956232
C  C168  1  0.34040000  0.95000000  0.53120000  1.0 -0.1185274844
C  C169  1  0.34000000  0.01150000  0.55550000  1.0 0.0800416979
C  C170  1  0.34200000  0.03370000  0.61650000  1.0 -0.1395355643
C  C171  1  0.35080000  0.00160000  0.65570000  1.0 -0.1100512664
C  C172  1  0.44470000  0.50830000  0.43400000  1.0 0.0297139607
C  C173  1  0.45110000  0.56090000  0.48720000  1.0 -0.0993991953
C  C174  1  0.40480000  0.58560000  0.46670000  1.0 0.0800416979
C  C175  1  0.36110000  0.55860000  0.39880000  1.0 -0.0900956232
C  C176  1  0.36220000  0.50740000  0.35120000  1.0 -0.0275320544
C  C177  1  0.36270000  0.20890000  0.05730000  1.0 0.0907009996
C  C178  1  0.36070000  0.15950000  0.00740000  1.0 -0.1769458068
C  C179  1  0.37870000  0.11440000  0.01940000  1.0 0.0988433042
C  C180  1  0.39700000  0.11880000  0.08430000  1.0 -0.2107455371
C  C181  1  0.39690000  0.17070000  0.13200000  1.0 0.1205114173
C  C182  1  0.37190000  0.95370000  0.91260000  1.0 0.0297139607
C  C183  1  0.37100000  0.00180000  0.96510000  1.0 -0.0900956232
C  C184  1  0.38140000  0.06180000  0.96750000  1.0 0.0688221666
C  C185  1  0.39550000  0.07540000  0.92260000  1.0 -0.0900956232
C  C186  1  0.39900000  0.02310000  0.87540000  1.0 -0.0007491782
C  C187  1  0.34990000  0.69600000  0.55980000  1.0 0.1107378124
C  C188  1  0.34660000  0.64640000  0.50660000  1.0 -0.1927825165
C  C189  1  0.40500000  0.64070000  0.51850000  1.0 0.0988433042
C  C190  1  0.46510000  0.68770000  0.58260000  1.0 -0.2011605563
C  C191  1  0.46210000  0.73550000  0.63160000  1.0 0.1107378124
C  C192  1  0.44810000  0.57390000  0.04270000  1.0 0.0111998165
C  C193  1  0.39050000  0.55130000  0.97990000  1.0 0.0416065188
C  C194  1  0.39290000  0.58970000  0.94610000  1.0 -0.1691408617
C  C195  1  0.45290000  0.65060000  0.97520000  1.0 0.0214974021
C  C196  1  0.51050000  0.67320000  0.03790000  1.0 0.0594400407
C  C197  1  0.50810000  0.63480000  0.07170000  1.0 -0.1769458068
C  C198  1  0.82490000  0.52270000  0.47610000  1.0 0.0416065188
C  C199  1  0.86550000  0.52780000  0.53880000  1.0 0.0800416979
C  C200  1  0.93760000  0.56390000  0.57210000  1.0 -0.1617601824
C  C201  1  0.96910000  0.59470000  0.54280000  1.0 0.0111998165
C  C202  1  0.92860000  0.58960000  0.48010000  1.0 -0.0599553951
C  C203  1  0.85650000  0.55360000  0.44680000  1.0 -0.1691408617
C  C204  1  0.33560000  0.12220000  0.44350000  1.0 0.0297139607
C  C205  1  0.38960000  0.15160000  0.51080000  1.0 0.0594400407
C  C206  1  0.38930000  0.11540000  0.54680000  1.0 -0.1691408617
C  C207  1  0.33510000  0.04970000  0.51550000  1.0 0.0214974021
C  C208  1  0.28110000  0.02020000  0.44820000  1.0 0.0594400407
C  C209  1  0.28130000  0.05650000  0.41220000  1.0 -0.1769458068
C  C210  1  0.96600000  0.18140000  0.01570000  1.0 0.0214974021
C  C211  1  0.92810000  0.17050000  0.94940000  1.0 0.0594400407
C  C212  1  0.85580000  0.13370000  0.91320000  1.0 -0.1769458068
C  C213  1  0.82160000  0.10780000  0.94330000  1.0 0.0214974021
C  C214  1  0.85950000  0.11870000  0.00960000  1.0 0.0688221666
C  C215  1  0.93180000  0.15550000  0.04580000  1.0 -0.1691408617
C  C216  1  0.32400000  0.46400000  0.92200000  1.0 -0.0599553951
C  C217  1  0.58690000  0.75530000  0.08530000  1.0 -0.2718784449
C  C218  1  0.82960000  0.50200000  0.58700000  1.0 -0.2718784449
C  C219  1  0.96060000  0.17900000  0.89600000  1.0 -0.1927825165
C  C220  1  0.81130000  0.07100000  0.02800000  1.0 -0.2848436994
C  C221  1  0.45100000  0.23630000  0.55360000  1.0 -0.2624872488
C  C222  1  0.21260000  0.93670000  0.39740000  1.0 -0.1927825165
C  C223  1  0.45930000  0.54150000  0.41390000  1.0 0.0416065188
C  C224  1  0.46250000  0.59920000  0.46150000  1.0 -0.1185274844
C  C225  1  0.34890000  0.52330000  0.42470000  1.0 -0.1100512664
C  C226  1  0.35180000  0.47290000  0.38040000  1.0 -0.0208754985
C  C227  1  0.42780000  0.99070000  0.93580000  1.0 0.0111998165
C  C228  1  0.42930000  0.04160000  0.98420000  1.0 -0.1100512664
C  C229  1  0.33620000  0.03610000  0.89930000  1.0 -0.0993991953
C  C230  1  0.33970000  0.98660000  0.85200000  1.0 -0.0371250541
N  N1  1  0.59750000  0.51710000  0.63030000  1.0 -0.0670162005
N  N2  1  0.61840000  0.78470000  0.88030000  1.0 -0.2270583076
N  N3  1  0.61200000  0.03320000  0.12890000  1.0 -0.0599553951
N  N4  1  0.59490000  0.26190000  0.37950000  1.0 -0.2270583076
N  N5  1  0.40250000  0.48290000  0.36970000  1.0 -0.0670162005
N  N6  1  0.38160000  0.21530000  0.11970000  1.0 -0.2270583076
N  N7  1  0.38800000  0.96680000  0.87110000  1.0 -0.0599553951
N  N8  1  0.40510000  0.73810000  0.62050000  1.0 -0.2270583076
O  O1  1  0.70220000  0.64140000  0.76890000  1.0 -0.5116596756
O  O2  1  0.70700000  0.72250000  0.85140000  1.0 -0.5116596756
O  O3  1  0.58550000  0.55580000  0.76230000  1.0 -0.4946626884
O  O4  1  0.58450000  0.63820000  0.83690000  1.0 -0.5116596756
O  O5  1  0.50240000  0.56980000  0.65580000  1.0 -0.5218872689
O  O6  1  0.50840000  0.65750000  0.73180000  1.0 -0.499915873
O  O7  1  0.62110000  0.66280000  0.67050000  1.0 -0.5218872689
O  O8  1  0.63230000  0.74990000  0.75290000  1.0 -0.499915873
O  O9  1  0.50280000  0.12080000  0.25240000  1.0 -0.499915873
O  O10  1  0.50760000  0.04950000  0.17030000  1.0 -0.5116596756
O  O11  1  0.57470000  0.22360000  0.23220000  1.0 -0.5116596756
O  O12  1  0.58510000  0.15290000  0.15510000  1.0 -0.5116596756
O  O13  1  0.69890000  0.25230000  0.33710000  1.0 -0.499915873
O  O14  1  0.70600000  0.17650000  0.26180000  1.0 -0.5116596756
O  O15  1  0.62890000  0.14520000  0.35120000  1.0 -0.5218872689
O  O16  1  0.62800000  0.06690000  0.26900000  1.0 -0.5116596756
O  O17  1  0.29780000  0.35860000  0.23110000  1.0 -0.5116596756
O  O18  1  0.29300000  0.27750000  0.14860000  1.0 -0.5116596756
O  O19  1  0.41450000  0.44420000  0.23770000  1.0 -0.4946626884
O  O20  1  0.41550000  0.36180000  0.16310000  1.0 -0.5116596756
O  O21  1  0.49760000  0.43020000  0.34420000  1.0 -0.5218872689
O  O22  1  0.49160000  0.34250000  0.26820000  1.0 -0.499915873
O  O23  1  0.37890000  0.33720000  0.32950000  1.0 -0.5218872689
O  O24  1  0.36770000  0.25010000  0.24710000  1.0 -0.499915873
O  O25  1  0.49720000  0.87920000  0.74760000  1.0 -0.499915873
O  O26  1  0.49240000  0.95050000  0.82970000  1.0 -0.5116596756
O  O27  1  0.42530000  0.77640000  0.76780000  1.0 -0.5116596756
O  O28  1  0.41490000  0.84710000  0.84490000  1.0 -0.5116596756
O  O29  1  0.30110000  0.74770000  0.66290000  1.0 -0.499915873
O  O30  1  0.29400000  0.82350000  0.73820000  1.0 -0.5116596756
O  O31  1  0.37110000  0.85480000  0.64880000  1.0 -0.5218872689
O  O32  1  0.37200000  0.93310000  0.73100000  1.0 -0.5116596756
