# DDEC6 charges by PACMAN v1.1 (https://github.com/mtap-research/PACMAN-charge/)
data_ZEGREL_FSR_pacman
_symmetry_space_group_name_H-M   'P 1'
_cell_length_a   12.53200000
_cell_length_b   12.53200000
_cell_length_c   12.53200000
_cell_angle_alpha   103.96300000
_cell_angle_beta   103.96300000
_cell_angle_gamma   121.15800000
_symmetry_Int_Tables_number   1
_chemical_formula_structural   InH4C8O5
_chemical_formula_sum   'In4 H16 C32 O20'
_cell_volume   1467.04244806
_cell_formula_units_Z   4
loop_
 _symmetry_equiv_pos_site_id
 _symmetry_equiv_pos_as_xyz
  1  'x, y, z'
loop_
 _atom_site_type_symbol
 _atom_site_label
 _atom_site_symmetry_multiplicity
 _atom_site_fract_x
 _atom_site_fract_y
 _atom_site_fract_z
 _atom_site_occupancy
 _atom_site_charge
In  In1  1  0.18766000  0.81234000  0.00000000  1.0 1.5558033141
In  In2  1  0.81234000  0.18766000  0.00000000  1.0 1.5558033141
In  In3  1  0.43766000  0.93766000  0.87532000  1.0 1.5558033141
In  In4  1  0.06234000  0.56234000  0.12468000  1.0 1.5558033141
H  H1  1  0.55145000  0.11958000  0.32145000  1.0 0.11812263
H  H2  1  0.79813000  0.23000000  0.67855000  1.0 0.11812263
H  H3  1  0.48000000  0.30145000  0.93187000  1.0 0.11812263
H  H4  1  0.36958000  0.54813000  0.06813000  1.0 0.11812263
H  H5  1  0.69855000  0.52000000  0.06813000  1.0 0.11812263
H  H6  1  0.45187000  0.63042000  0.93187000  1.0 0.11812263
H  H7  1  0.77000000  0.20187000  0.32145000  1.0 0.11812263
H  H8  1  0.88042000  0.44855000  0.67855000  1.0 0.11812263
H  H9  1  0.44245000  0.87500000  0.06745000  1.0 0.4072230684
H  H10  1  0.80755000  0.37500000  0.93255000  1.0 0.4072230684
H  H11  1  0.62500000  0.19245000  0.06745000  1.0 0.4072230684
H  H12  1  0.12500000  0.55755000  0.93255000  1.0 0.4072230684
H  H13  1  0.38352000  0.88352000  0.50000000  1.0 0.1439206453
H  H14  1  0.13352000  0.13352000  0.00000000  1.0 0.1439206453
H  H15  1  0.86648000  0.86648000  0.00000000  1.0 0.1439206453
H  H16  1  0.11648000  0.61648000  0.50000000  1.0 0.1439206453
C  C1  1  0.31690000  0.87030000  0.27420000  1.0 0.5977310094
C  C2  1  0.44980000  0.98030000  0.39350000  1.0 0.0047505368
C  C3  1  0.56270000  0.10170000  0.39100000  1.0 -0.1736646516
C  C4  1  0.59610000  0.04270000  0.72580000  1.0 0.5977310094
C  C5  1  0.58680000  0.05630000  0.60650000  1.0 0.0047505368
C  C6  1  0.71070000  0.17170000  0.60900000  1.0 -0.1736646516
C  C7  1  0.29270000  0.06690000  0.94660000  1.0 0.5977310094
C  C8  1  0.30630000  0.19980000  0.96950000  1.0 0.0047505368
C  C9  1  0.42170000  0.31270000  0.96100000  1.0 -0.1736646516
C  C10  1  0.12030000  0.34610000  0.05340000  1.0 0.5977310094
C  C11  1  0.23030000  0.33680000  0.03050000  1.0 0.0047505368
C  C12  1  0.35170000  0.46070000  0.03900000  1.0 -0.1736646516
C  C13  1  0.93310000  0.70730000  0.05340000  1.0 0.5977310094
C  C14  1  0.80020000  0.69370000  0.03050000  1.0 0.0047505368
C  C15  1  0.68730000  0.57830000  0.03900000  1.0 -0.1736646516
C  C16  1  0.65390000  0.87970000  0.94660000  1.0 0.5977310094
C  C17  1  0.66320000  0.76970000  0.96950000  1.0 0.0047505368
C  C18  1  0.53930000  0.64830000  0.96100000  1.0 -0.1736646516
C  C19  1  0.95730000  0.40390000  0.27420000  1.0 0.5977310094
C  C20  1  0.94370000  0.41320000  0.39350000  1.0 0.0047505368
C  C21  1  0.82830000  0.28930000  0.39100000  1.0 -0.1736646516
C  C22  1  0.12970000  0.68310000  0.72580000  1.0 0.5977310094
C  C23  1  0.01970000  0.55020000  0.60650000  1.0 0.0047505368
C  C24  1  0.89830000  0.43730000  0.60900000  1.0 -0.1736646516
C  C25  1  0.69200000  0.19200000  0.50000000  1.0 0.0722757767
C  C26  1  0.46100000  0.96100000  0.50000000  1.0 -0.1264399176
C  C27  1  0.44200000  0.44200000  0.00000000  1.0 0.0722757767
C  C28  1  0.21100000  0.21100000  0.00000000  1.0 -0.1264399176
C  C29  1  0.55800000  0.55800000  0.00000000  1.0 0.0722757767
C  C30  1  0.78900000  0.78900000  0.00000000  1.0 -0.1264399176
C  C31  1  0.80800000  0.30800000  0.50000000  1.0 0.0722757767
C  C32  1  0.03900000  0.53900000  0.50000000  1.0 -0.1264399176
O  O1  1  0.29730000  0.91130000  0.19760000  1.0 -0.5474017782
O  O2  1  0.24620000  0.74920000  0.26860000  1.0 -0.5595311967
O  O3  1  0.71370000  0.09970000  0.80240000  1.0 -0.5474017782
O  O4  1  0.48060000  0.97760000  0.73140000  1.0 -0.5595311967
O  O5  1  0.34970000  0.04730000  0.88600000  1.0 -0.5474017782
O  O6  1  0.22760000  0.99620000  0.99700000  1.0 -0.5595311967
O  O7  1  0.16130000  0.46370000  0.11400000  1.0 -0.5474017782
O  O8  1  0.99920000  0.23060000  0.00300000  1.0 -0.5595311967
O  O9  1  0.95270000  0.65030000  0.11400000  1.0 -0.5474017782
O  O10  1  0.00380000  0.77240000  0.00300000  1.0 -0.5595311967
O  O11  1  0.53630000  0.83870000  0.88600000  1.0 -0.5474017782
O  O12  1  0.76940000  0.00080000  0.99700000  1.0 -0.5595311967
O  O13  1  0.90030000  0.28630000  0.19760000  1.0 -0.5474017782
O  O14  1  0.02240000  0.51940000  0.26860000  1.0 -0.5595311967
O  O15  1  0.08870000  0.70270000  0.80240000  1.0 -0.5474017782
O  O16  1  0.25080000  0.75380000  0.73140000  1.0 -0.5595311967
O  O17  1  0.38100000  0.87500000  0.00600000  1.0 -0.9327959863
O  O18  1  0.86900000  0.37500000  0.99400000  1.0 -0.9327959863
O  O19  1  0.62500000  0.13100000  0.00600000  1.0 -0.9327959863
O  O20  1  0.12500000  0.61900000  0.99400000  1.0 -0.9327959863
