# DDEC6 charges by PACMAN v1.1 (https://github.com/mtap-research/PACMAN-charge/)
data_ZEHCAQ02_ASR_pacman
_symmetry_space_group_name_H-M   'P 1'
_cell_length_a   9.58906000
_cell_length_b   9.58906000
_cell_length_c   11.78400000
_cell_angle_alpha   84.86940000
_cell_angle_beta   95.13060000
_cell_angle_gamma   78.10630000
_symmetry_Int_Tables_number   1
_chemical_formula_structural   ZnPO4
_chemical_formula_sum   'Zn8 P8 O32'
_cell_volume   1049.54323534
_cell_formula_units_Z   8
loop_
 _symmetry_equiv_pos_site_id
 _symmetry_equiv_pos_as_xyz
  1  'x, y, z'
loop_
 _atom_site_type_symbol
 _atom_site_label
 _atom_site_symmetry_multiplicity
 _atom_site_fract_x
 _atom_site_fract_y
 _atom_site_fract_z
 _atom_site_occupancy
 _atom_site_charge
Zn  Zn1  1  0.86025000  0.66823000  0.91202000  1.0 1.2076772886
Zn  Zn2  1  0.66823000  0.86025000  0.58798000  1.0 1.2076772886
Zn  Zn3  1  0.13975000  0.33177000  0.08798000  1.0 1.2076772886
Zn  Zn4  1  0.33177000  0.13975000  0.41202000  1.0 1.2076772886
Zn  Zn5  1  0.09126000  0.68188000  0.45496000  1.0 1.1195962566
Zn  Zn6  1  0.68188000  0.09126000  0.04504000  1.0 1.1195962566
Zn  Zn7  1  0.90874000  0.31812000  0.54504000  1.0 1.1195962566
Zn  Zn8  1  0.31812000  0.90874000  0.95496000  1.0 1.1195962566
P  P1  1  0.93186000  0.59236000  0.65537000  1.0 1.4001939433
P  P2  1  0.59236000  0.93186000  0.84463000  1.0 1.4001939433
P  P3  1  0.06814000  0.40764000  0.34463000  1.0 1.4001939433
P  P4  1  0.40764000  0.06814000  0.15537000  1.0 1.4001939433
P  P5  1  0.83977000  0.33697000  0.96402000  1.0 1.3830520052
P  P6  1  0.33697000  0.83977000  0.53598000  1.0 1.3879531759
P  P7  1  0.16023000  0.66303000  0.03598000  1.0 1.3879531759
P  P8  1  0.66303000  0.16023000  0.46402000  1.0 1.3830520052
O  O1  1  0.74356000  0.27162000  0.03831000  1.0 -0.6327336294
O  O2  1  0.27162000  0.74356000  0.46169000  1.0 -0.6327336294
O  O3  1  0.25644000  0.72838000  0.96169000  1.0 -0.6327336294
O  O4  1  0.72838000  0.25644000  0.53831000  1.0 -0.6327336294
O  O5  1  0.80803000  0.68831000  0.57652000  1.0 -0.69949709
O  O6  1  0.68831000  0.80803000  0.92348000  1.0 -0.69949709
O  O7  1  0.19197000  0.31169000  0.42348000  1.0 -0.69949709
O  O8  1  0.31169000  0.19197000  0.07652000  1.0 -0.69949709
O  O9  1  0.81857000  0.49477000  0.98420000  1.0 -0.6586006743
O  O10  1  0.49477000  0.81857000  0.51580000  1.0 -0.6586006743
O  O11  1  0.18143000  0.50523000  0.01580000  1.0 -0.6586006743
O  O12  1  0.50523000  0.18143000  0.48420000  1.0 -0.6586006743
O  O13  1  0.99871000  0.26365000  0.98764000  1.0 -0.6586006743
O  O14  1  0.26365000  0.99871000  0.51236000  1.0 -0.6586006743
O  O15  1  0.00129000  0.73635000  0.01236000  1.0 -0.6586006743
O  O16  1  0.73635000  0.00129000  0.48764000  1.0 -0.6502577645
O  O17  1  0.07417000  0.58829000  0.60273000  1.0 -0.6738462759
O  O18  1  0.58829000  0.07417000  0.89727000  1.0 -0.6738462759
O  O19  1  0.92583000  0.41171000  0.39727000  1.0 -0.6738462759
O  O20  1  0.41171000  0.92583000  0.10273000  1.0 -0.6738462759
O  O21  1  0.90763000  0.43717000  0.67212000  1.0 -0.6107571584
O  O22  1  0.43717000  0.90763000  0.82788000  1.0 -0.6107571584
O  O23  1  0.09237000  0.56283000  0.32788000  1.0 -0.6107571584
O  O24  1  0.56283000  0.09237000  0.17212000  1.0 -0.6107571584
O  O25  1  0.78941000  0.32099000  0.83576000  1.0 -0.5307625396
O  O26  1  0.32099000  0.78941000  0.66424000  1.0 -0.5307625396
O  O27  1  0.21059000  0.67901000  0.16424000  1.0 -0.5307625396
O  O28  1  0.67901000  0.21059000  0.33576000  1.0 -0.5307625396
O  O29  1  0.94966000  0.64820000  0.77308000  1.0 -0.6502577645
O  O30  1  0.64820000  0.94966000  0.72692000  1.0 -0.6502577645
O  O31  1  0.05034000  0.35180000  0.22692000  1.0 -0.6502577645
O  O32  1  0.35180000  0.05034000  0.27308000  1.0 -0.6502577645
