# DDEC6 charges by PACMAN v1.1 (https://github.com/mtap-research/PACMAN-charge/)
data_ZEHCAQ_FSR_pacman
_symmetry_space_group_name_H-M   'P 1'
_cell_length_a   9.59376000
_cell_length_b   9.59376000
_cell_length_c   11.84900000
_cell_angle_alpha   85.08000000
_cell_angle_beta   94.92000000
_cell_angle_gamma   78.13760000
_symmetry_Int_Tables_number   1
_chemical_formula_structural   Zn2P2(HO3)3
_chemical_formula_sum   'Zn8 P8 H12 O36'
_cell_volume   1057.36617517
_cell_formula_units_Z   4
loop_
 _symmetry_equiv_pos_site_id
 _symmetry_equiv_pos_as_xyz
  1  'x, y, z'
loop_
 _atom_site_type_symbol
 _atom_site_label
 _atom_site_symmetry_multiplicity
 _atom_site_fract_x
 _atom_site_fract_y
 _atom_site_fract_z
 _atom_site_occupancy
 _atom_site_charge
Zn  Zn1  1  0.85908000  0.66740000  0.91105000  1.0 1.1607587929
Zn  Zn2  1  0.66740000  0.85908000  0.58895000  1.0 1.1607587929
Zn  Zn3  1  0.14092000  0.33260000  0.08895000  1.0 1.1607587929
Zn  Zn4  1  0.33260000  0.14092000  0.41105000  1.0 1.1607587929
Zn  Zn5  1  0.09093000  0.68197000  0.45622000  1.0 1.0910641844
Zn  Zn6  1  0.68197000  0.09093000  0.04378000  1.0 1.0910641844
Zn  Zn7  1  0.90907000  0.31803000  0.54378000  1.0 1.0910641844
Zn  Zn8  1  0.31803000  0.90907000  0.95622000  1.0 1.0910641844
P  P1  1  0.93150000  0.59190000  0.65538000  1.0 1.5849083061
P  P2  1  0.59190000  0.93150000  0.84462000  1.0 1.5862677689
P  P3  1  0.06850000  0.40810000  0.34462000  1.0 1.5862677689
P  P4  1  0.40810000  0.06850000  0.15538000  1.0 1.5862677689
P  P5  1  0.84128000  0.33668000  0.96281000  1.0 1.5640625353
P  P6  1  0.33668000  0.84128000  0.53719000  1.0 1.5640625353
P  P7  1  0.15872000  0.66332000  0.03719000  1.0 1.5640625353
P  P8  1  0.66332000  0.15872000  0.46281000  1.0 1.5640625353
H  H1  1  0.90000000  0.89800000  0.43300000  1.0 0.4161540042
H  H2  1  0.89800000  0.90000000  0.06700000  1.0 0.4161540042
H  H3  1  0.10000000  0.10200000  0.56700000  1.0 0.4161540042
H  H4  1  0.10200000  0.10000000  0.93300000  1.0 0.4161540042
H  H5  1  0.98900000  0.93100000  0.34800000  1.0 0.4310673769
H  H6  1  0.93100000  0.98900000  0.15200000  1.0 0.4310673769
H  H7  1  0.01100000  0.06900000  0.65200000  1.0 0.4310673769
H  H8  1  0.06900000  0.01100000  0.84800000  1.0 0.4310673769
H  H9  1  0.83300000  0.35700000  0.78700000  1.0 0.4122087951
H  H10  1  0.35700000  0.83300000  0.71300000  1.0 0.4122087951
H  H11  1  0.16700000  0.64300000  0.21300000  1.0 0.4122087951
H  H12  1  0.64300000  0.16700000  0.28700000  1.0 0.4122087951
O  O1  1  0.81510000  0.49410000  0.98040000  1.0 -0.7589746569
O  O2  1  0.49410000  0.81510000  0.51960000  1.0 -0.7589746569
O  O3  1  0.18490000  0.50590000  0.01960000  1.0 -0.7589746569
O  O4  1  0.50590000  0.18490000  0.48040000  1.0 -0.7589746569
O  O5  1  0.94987000  0.64567000  0.77320000  1.0 -0.7870122795
O  O6  1  0.64567000  0.94987000  0.72680000  1.0 -0.7870122795
O  O7  1  0.05013000  0.35433000  0.22680000  1.0 -0.7870122795
O  O8  1  0.35433000  0.05013000  0.27320000  1.0 -0.7870122795
O  O9  1  0.80820000  0.68960000  0.57790000  1.0 -0.8079099511
O  O10  1  0.68960000  0.80820000  0.92210000  1.0 -0.8079099511
O  O11  1  0.19180000  0.31040000  0.42210000  1.0 -0.8079099511
O  O12  1  0.31040000  0.19180000  0.07790000  1.0 -0.8079099511
O  O13  1  0.00030000  0.73250000  0.01270000  1.0 -0.7782596818
O  O14  1  0.73250000  0.00030000  0.48730000  1.0 -0.7782596818
O  O15  1  0.99970000  0.26750000  0.98730000  1.0 -0.7782596818
O  O16  1  0.26750000  0.99970000  0.51270000  1.0 -0.7782596818
O  O17  1  0.07352000  0.58752000  0.60230000  1.0 -0.7782596818
O  O18  1  0.58752000  0.07352000  0.89770000  1.0 -0.7782596818
O  O19  1  0.92648000  0.41248000  0.39770000  1.0 -0.7782596818
O  O20  1  0.41248000  0.92648000  0.10230000  1.0 -0.7782596818
O  O21  1  0.90708000  0.43648000  0.67020000  1.0 -0.7782596818
O  O22  1  0.43648000  0.90708000  0.82980000  1.0 -0.7743566637
O  O23  1  0.09292000  0.56352000  0.32980000  1.0 -0.7743566637
O  O24  1  0.56352000  0.09292000  0.17020000  1.0 -0.7743566637
O  O25  1  0.74630000  0.26950000  0.03700000  1.0 -0.7589746569
O  O26  1  0.26950000  0.74630000  0.46300000  1.0 -0.7589746569
O  O27  1  0.25370000  0.73050000  0.96300000  1.0 -0.7589746569
O  O28  1  0.73050000  0.25370000  0.53700000  1.0 -0.7589746569
O  O29  1  0.95490000  0.86270000  0.39550000  1.0 -0.6142620598
O  O30  1  0.86270000  0.95490000  0.10450000  1.0 -0.6142620598
O  O31  1  0.04510000  0.13730000  0.60450000  1.0 -0.6142620598
O  O32  1  0.13730000  0.04510000  0.89550000  1.0 -0.6142620598
O  O33  1  0.79390000  0.31530000  0.83590000  1.0 -0.6022582058
O  O34  1  0.31530000  0.79390000  0.66410000  1.0 -0.6022582058
O  O35  1  0.20610000  0.68470000  0.16410000  1.0 -0.6022582058
O  O36  1  0.68470000  0.20610000  0.33590000  1.0 -0.6022582058
