# DDEC6 charges by PACMAN v1.1 (https://github.com/mtap-research/PACMAN-charge/)
data_ZEJWET_FSR_pacman
_symmetry_space_group_name_H-M   'P 1'
_cell_length_a   16.74340000
_cell_length_b   16.74340000
_cell_length_c   15.72500000
_cell_angle_alpha   83.08000000
_cell_angle_beta   96.92000000
_cell_angle_gamma   127.86900000
_symmetry_Int_Tables_number   1
_chemical_formula_structural   YbH16WC23N11O5
_chemical_formula_sum   'Yb4 H64 W4 C92 N44 O20'
_cell_volume   3448.59451665
_cell_formula_units_Z   4
loop_
 _symmetry_equiv_pos_site_id
 _symmetry_equiv_pos_as_xyz
  1  'x, y, z'
loop_
 _atom_site_type_symbol
 _atom_site_label
 _atom_site_symmetry_multiplicity
 _atom_site_fract_x
 _atom_site_fract_y
 _atom_site_fract_z
 _atom_site_occupancy
 _atom_site_charge
Yb  Yb1  1  0.20380000  0.76926000  0.54084000  1.0 1.9530663145
Yb  Yb2  1  0.76926000  0.20380000  0.95916000  1.0 1.9530663145
Yb  Yb3  1  0.79620000  0.23074000  0.45916000  1.0 1.9530663145
Yb  Yb4  1  0.23074000  0.79620000  0.04084000  1.0 1.9530663145
H  H1  1  0.41650000  0.93390000  0.56580000  1.0 0.3660359484
H  H2  1  0.40480000  0.88620000  0.49560000  1.0 0.352045129
H  H3  1  0.31820000  0.70640000  0.54880000  1.0 0.3392272008
H  H4  1  0.26520000  0.67260000  0.62010000  1.0 0.3238850561
H  H5  1  0.21280000  0.85240000  0.31550000  1.0 0.1513404343
H  H6  1  0.32150000  0.95190000  0.20800000  1.0 0.1513404343
H  H7  1  0.48670000  0.18050000  0.36590000  1.0 0.1513404343
H  H8  1  0.37340000  0.07900000  0.46730000  1.0 0.1513404343
H  H9  1  0.52672000  0.13992000  0.00900000  1.0 0.1513404343
H  H10  1  0.40620000  0.06320000  0.10900000  1.0 0.1513404343
H  H11  1  0.61800000  0.22020000  0.29100000  1.0 0.1588016962
H  H12  1  0.73860000  0.30320000  0.18750000  1.0 0.1513404343
H  H13  1  0.95170000  0.75170000  0.45870000  1.0 0.1513404343
H  H14  1  0.93310000  0.87250000  0.41790000  1.0 0.1588016962
H  H15  1  0.10790000  0.03390000  0.60340000  1.0 0.1513404343
H  H16  1  0.14270000  0.91630000  0.64580000  1.0 0.1298681301
H  H17  1  0.93390000  0.41650000  0.93420000  1.0 0.3660359484
H  H18  1  0.88620000  0.40480000  0.00440000  1.0 0.352045129
H  H19  1  0.70640000  0.31820000  0.95120000  1.0 0.3307347819
H  H20  1  0.67260000  0.26520000  0.87990000  1.0 0.3238850561
H  H21  1  0.85240000  0.21280000  0.18450000  1.0 0.1513404343
H  H22  1  0.95190000  0.32150000  0.29200000  1.0 0.1513404343
H  H23  1  0.18050000  0.48670000  0.13410000  1.0 0.1513404343
H  H24  1  0.07900000  0.37340000  0.03270000  1.0 0.1513404343
H  H25  1  0.13992000  0.52672000  0.49100000  1.0 0.1513404343
H  H26  1  0.06320000  0.40620000  0.39100000  1.0 0.1513404343
H  H27  1  0.22020000  0.61800000  0.20900000  1.0 0.1588016962
H  H28  1  0.30320000  0.73860000  0.31250000  1.0 0.1513404343
H  H29  1  0.75170000  0.95170000  0.04130000  1.0 0.1513404343
H  H30  1  0.87250000  0.93310000  0.08210000  1.0 0.1588016962
H  H31  1  0.03390000  0.10790000  0.89660000  1.0 0.1513404343
H  H32  1  0.91630000  0.14270000  0.85420000  1.0 0.1298681301
H  H33  1  0.58350000  0.06610000  0.43420000  1.0 0.3660359484
H  H34  1  0.59520000  0.11380000  0.50440000  1.0 0.352045129
H  H35  1  0.68180000  0.29360000  0.45120000  1.0 0.3307347819
H  H36  1  0.73480000  0.32740000  0.37990000  1.0 0.3238850561
H  H37  1  0.78720000  0.14760000  0.68450000  1.0 0.1513404343
H  H38  1  0.67850000  0.04810000  0.79200000  1.0 0.1513404343
H  H39  1  0.51330000  0.81950000  0.63410000  1.0 0.1513404343
H  H40  1  0.62660000  0.92100000  0.53270000  1.0 0.1513404343
H  H41  1  0.47328000  0.86008000  0.99100000  1.0 0.1513404343
H  H42  1  0.59380000  0.93680000  0.89100000  1.0 0.1513404343
H  H43  1  0.38200000  0.77980000  0.70900000  1.0 0.1588016962
H  H44  1  0.26140000  0.69680000  0.81250000  1.0 0.1513404343
H  H45  1  0.04830000  0.24830000  0.54130000  1.0 0.1513404343
H  H46  1  0.06690000  0.12750000  0.58210000  1.0 0.1588016962
H  H47  1  0.89210000  0.96610000  0.39660000  1.0 0.1513404343
H  H48  1  0.85730000  0.08370000  0.35420000  1.0 0.1298681301
H  H49  1  0.06610000  0.58350000  0.06580000  1.0 0.3660359484
H  H50  1  0.11380000  0.59520000  0.99560000  1.0 0.352045129
H  H51  1  0.29360000  0.68180000  0.04880000  1.0 0.3307347819
H  H52  1  0.32740000  0.73480000  0.12010000  1.0 0.3238850561
H  H53  1  0.14760000  0.78720000  0.81550000  1.0 0.1513404343
H  H54  1  0.04810000  0.67850000  0.70800000  1.0 0.1513404343
H  H55  1  0.81950000  0.51330000  0.86590000  1.0 0.1513404343
H  H56  1  0.92100000  0.62660000  0.96730000  1.0 0.1513404343
H  H57  1  0.86008000  0.47328000  0.50900000  1.0 0.1513404343
H  H58  1  0.93680000  0.59380000  0.60900000  1.0 0.1513404343
H  H59  1  0.77980000  0.38200000  0.79100000  1.0 0.1588016962
H  H60  1  0.69680000  0.26140000  0.68750000  1.0 0.1513404343
H  H61  1  0.24830000  0.04830000  0.95870000  1.0 0.1513404343
H  H62  1  0.12750000  0.06690000  0.91790000  1.0 0.1588016962
H  H63  1  0.96610000  0.89210000  0.10340000  1.0 0.1513404343
H  H64  1  0.08370000  0.85730000  0.14580000  1.0 0.1298681301
W  W1  1  0.40844000  0.08556000  0.76060000  1.0 0.5414214285
W  W2  1  0.08556000  0.40844000  0.73940000  1.0 0.5414214285
W  W3  1  0.59156000  0.91444000  0.23940000  1.0 0.5414214285
W  W4  1  0.91444000  0.59156000  0.26060000  1.0 0.5459269834
C  C1  1  0.26920000  0.91860000  0.32500000  1.0 -0.0483755317
C  C2  1  0.33570000  0.97750000  0.26170000  1.0 -0.1369727301
C  C3  1  0.42440000  0.07500000  0.27620000  1.0 0.1076595512
C  C4  1  0.43340000  0.11340000  0.35520000  1.0 -0.1696808367
C  C5  1  0.36490000  0.05270000  0.41520000  1.0 -0.000505807
C  C6  1  0.54600000  0.15660000  0.06600000  1.0 -0.0483755317
C  C7  1  0.47390000  0.11090000  0.12650000  1.0 -0.1186272922
C  C8  1  0.49740000  0.13260000  0.20930000  1.0 0.0785233182
C  C9  1  0.59830000  0.20410000  0.23390000  1.0 -0.1143138717
C  C10  1  0.67100000  0.25220000  0.17210000  1.0 -0.044108647
C  C11  1  0.98730000  0.81010000  0.48870000  1.0 -0.0084317418
C  C12  1  0.97320000  0.88060000  0.46740000  1.0 -0.1696808367
C  C13  1  0.01300000  0.96280000  0.51240000  1.0 0.0974683007
C  C14  1  0.07480000  0.97580000  0.57310000  1.0 -0.152302255
C  C15  1  0.09800000  0.90500000  0.59900000  1.0 0.0175410549
C  C16  1  0.32010000  0.94070000  0.70530000  1.0 0.0297198867
C  C17  1  0.36380000  0.98140000  0.87090000  1.0 0.0442716655
C  C18  1  0.54770000  0.12490000  0.82650000  1.0 0.059936325
C  C19  1  0.42260000  0.17060000  0.86190000  1.0 -0.0202585308
C  C20  1  0.51230000  0.24490000  0.72470000  1.0 -0.0202585308
C  C21  1  0.49230000  0.09030000  0.66100000  1.0 0.0175410549
C  C22  1  0.34680000  0.11820000  0.64270000  1.0 0.0087253606
C  C23  1  0.25380000  0.02900000  0.77730000  1.0 0.0087253606
C  C24  1  0.91860000  0.26920000  0.17500000  1.0 -0.0483755317
C  C25  1  0.97750000  0.33570000  0.23830000  1.0 -0.1369727301
C  C26  1  0.07500000  0.42440000  0.22380000  1.0 0.1076595512
C  C27  1  0.11340000  0.43340000  0.14480000  1.0 -0.1696808367
C  C28  1  0.05270000  0.36490000  0.08480000  1.0 -0.000505807
C  C29  1  0.15660000  0.54600000  0.43400000  1.0 -0.0483755317
C  C30  1  0.11090000  0.47390000  0.37350000  1.0 -0.1186272922
C  C31  1  0.13260000  0.49740000  0.29070000  1.0 0.0785233182
C  C32  1  0.20410000  0.59830000  0.26610000  1.0 -0.1143138717
C  C33  1  0.25220000  0.67100000  0.32790000  1.0 -0.044108647
C  C34  1  0.81010000  0.98730000  0.01130000  1.0 -0.0084317418
C  C35  1  0.88060000  0.97320000  0.03260000  1.0 -0.1696808367
C  C36  1  0.96280000  0.01300000  0.98760000  1.0 0.0974683007
C  C37  1  0.97580000  0.07480000  0.92690000  1.0 -0.152302255
C  C38  1  0.90500000  0.09800000  0.90100000  1.0 0.0175410549
C  C39  1  0.94070000  0.32010000  0.79470000  1.0 0.0297198867
C  C40  1  0.98140000  0.36380000  0.62910000  1.0 0.0442716655
C  C41  1  0.12490000  0.54770000  0.67350000  1.0 0.059936325
C  C42  1  0.17060000  0.42260000  0.63810000  1.0 -0.0202585308
C  C43  1  0.24490000  0.51230000  0.77530000  1.0 -0.0202585308
C  C44  1  0.09030000  0.49230000  0.83900000  1.0 0.0175410549
C  C45  1  0.11820000  0.34680000  0.85730000  1.0 0.0087253606
C  C46  1  0.02900000  0.25380000  0.72270000  1.0 0.0087253606
C  C47  1  0.73080000  0.08140000  0.67500000  1.0 -0.0483755317
C  C48  1  0.66430000  0.02250000  0.73830000  1.0 -0.1369727301
C  C49  1  0.57560000  0.92500000  0.72380000  1.0 0.1076595512
C  C50  1  0.56660000  0.88660000  0.64480000  1.0 -0.1696808367
C  C51  1  0.63510000  0.94730000  0.58480000  1.0 -0.000505807
C  C52  1  0.45400000  0.84340000  0.93400000  1.0 -0.0483755317
C  C53  1  0.52610000  0.88910000  0.87350000  1.0 -0.1186272922
C  C54  1  0.50260000  0.86740000  0.79070000  1.0 0.0785233182
C  C55  1  0.40170000  0.79590000  0.76610000  1.0 -0.1143138717
C  C56  1  0.32900000  0.74780000  0.82790000  1.0 -0.044108647
C  C57  1  0.01270000  0.18990000  0.51130000  1.0 -0.0084317418
C  C58  1  0.02680000  0.11940000  0.53260000  1.0 -0.1696808367
C  C59  1  0.98700000  0.03720000  0.48760000  1.0 0.0974683007
C  C60  1  0.92520000  0.02420000  0.42690000  1.0 -0.152302255
C  C61  1  0.90200000  0.09500000  0.40100000  1.0 0.0175410549
C  C62  1  0.67990000  0.05930000  0.29470000  1.0 0.0297198867
C  C63  1  0.63620000  0.01860000  0.12910000  1.0 0.0452456352
C  C64  1  0.45230000  0.87510000  0.17350000  1.0 0.059936325
C  C65  1  0.57740000  0.82940000  0.13810000  1.0 -0.0202585308
C  C66  1  0.48770000  0.75510000  0.27530000  1.0 -0.0202585308
C  C67  1  0.50770000  0.90970000  0.33900000  1.0 0.0175410549
C  C68  1  0.65320000  0.88180000  0.35730000  1.0 0.0087253606
C  C69  1  0.74620000  0.97100000  0.22270000  1.0 0.0087253606
C  C70  1  0.08140000  0.73080000  0.82500000  1.0 -0.0483755317
C  C71  1  0.02250000  0.66430000  0.76170000  1.0 -0.1369727301
C  C72  1  0.92500000  0.57560000  0.77620000  1.0 0.1076595512
C  C73  1  0.88660000  0.56660000  0.85520000  1.0 -0.1696808367
C  C74  1  0.94730000  0.63510000  0.91520000  1.0 -0.000505807
C  C75  1  0.84340000  0.45400000  0.56600000  1.0 -0.0483755317
C  C76  1  0.88910000  0.52610000  0.62650000  1.0 -0.1186272922
C  C77  1  0.86740000  0.50260000  0.70930000  1.0 0.0785233182
C  C78  1  0.79590000  0.40170000  0.73390000  1.0 -0.1143138717
C  C79  1  0.74780000  0.32900000  0.67210000  1.0 -0.044108647
C  C80  1  0.18990000  0.01270000  0.98870000  1.0 -0.0084317418
C  C81  1  0.11940000  0.02680000  0.96740000  1.0 -0.1696808367
C  C82  1  0.03720000  0.98700000  0.01240000  1.0 0.0974683007
C  C83  1  0.02420000  0.92520000  0.07310000  1.0 -0.152302255
C  C84  1  0.09500000  0.90200000  0.09900000  1.0 0.0175410549
C  C85  1  0.05930000  0.67990000  0.20530000  1.0 0.0297198867
C  C86  1  0.01860000  0.63620000  0.37090000  1.0 0.0442716655
C  C87  1  0.87510000  0.45230000  0.32650000  1.0 0.059936325
C  C88  1  0.82940000  0.57740000  0.36190000  1.0 -0.0202585308
C  C89  1  0.75510000  0.48770000  0.22470000  1.0 -0.0202585308
C  C90  1  0.90970000  0.50770000  0.16100000  1.0 0.0175410549
C  C91  1  0.88180000  0.65320000  0.14270000  1.0 0.0087253606
C  C92  1  0.97100000  0.74620000  0.27730000  1.0 0.0087253606
N  N1  1  0.28710000  0.95850000  0.40240000  1.0 0.3307347819
N  N2  1  0.64300000  0.22460000  0.08990000  1.0 0.3392272008
N  N3  1  0.05390000  0.82510000  0.55440000  1.0 0.3307347819
N  N4  1  0.26970000  0.86410000  0.67000000  1.0 -0.486043294
N  N5  1  0.33270000  0.92750000  0.93320000  1.0 -0.5011916804
N  N6  1  0.62170000  0.14410000  0.86510000  1.0 -0.5744404244
N  N7  1  0.43050000  0.21710000  0.91640000  1.0 -0.3275584403
N  N8  1  0.55900000  0.33840000  0.70190000  1.0 -0.3029383766
N  N9  1  0.52750000  0.08530000  0.60660000  1.0 -0.3539688635
N  N10  1  0.32020000  0.13640000  0.57800000  1.0 -0.3275584403
N  N11  1  0.17360000  0.99540000  0.78610000  1.0 -0.3152261722
N  N12  1  0.95850000  0.28710000  0.09760000  1.0 0.3307347819
N  N13  1  0.22460000  0.64300000  0.41010000  1.0 0.3392272008
N  N14  1  0.82510000  0.05390000  0.94560000  1.0 0.3307347819
N  N15  1  0.86410000  0.26970000  0.83000000  1.0 -0.486043294
N  N16  1  0.92750000  0.33270000  0.56680000  1.0 -0.5011916804
N  N17  1  0.14410000  0.62170000  0.63490000  1.0 -0.5754665184
N  N18  1  0.21710000  0.43050000  0.58360000  1.0 -0.3275584403
N  N19  1  0.33840000  0.55900000  0.79810000  1.0 -0.3029383766
N  N20  1  0.08530000  0.52750000  0.89340000  1.0 -0.3551403033
N  N21  1  0.13640000  0.32020000  0.92200000  1.0 -0.3275584403
N  N22  1  0.99540000  0.17360000  0.71390000  1.0 -0.3152261722
N  N23  1  0.71290000  0.04150000  0.59760000  1.0 0.3307347819
N  N24  1  0.35700000  0.77540000  0.91010000  1.0 0.3392272008
N  N25  1  0.94610000  0.17490000  0.44560000  1.0 0.3307347819
N  N26  1  0.73030000  0.13590000  0.33000000  1.0 -0.486043294
N  N27  1  0.66730000  0.07250000  0.06680000  1.0 -0.5011916804
N  N28  1  0.37830000  0.85590000  0.13490000  1.0 -0.5744404244
N  N29  1  0.56950000  0.78290000  0.08360000  1.0 -0.3275584403
N  N30  1  0.44100000  0.66160000  0.29810000  1.0 -0.3029383766
N  N31  1  0.47250000  0.91470000  0.39340000  1.0 -0.3551403033
N  N32  1  0.67980000  0.86360000  0.42200000  1.0 -0.3275584403
N  N33  1  0.82640000  0.00460000  0.21390000  1.0 -0.3152261722
N  N34  1  0.04150000  0.71290000  0.90240000  1.0 0.3307347819
N  N35  1  0.77540000  0.35700000  0.58990000  1.0 0.3392272008
N  N36  1  0.17490000  0.94610000  0.05440000  1.0 0.3307347819
N  N37  1  0.13590000  0.73030000  0.17000000  1.0 -0.486043294
N  N38  1  0.07250000  0.66730000  0.43320000  1.0 -0.5011916804
N  N39  1  0.85590000  0.37830000  0.36510000  1.0 -0.5744404244
N  N40  1  0.78290000  0.56950000  0.41640000  1.0 -0.3275584403
N  N41  1  0.66160000  0.44100000  0.20190000  1.0 -0.3029383766
N  N42  1  0.91470000  0.47250000  0.10660000  1.0 -0.3539688635
N  N43  1  0.86360000  0.67980000  0.07800000  1.0 -0.3275584403
N  N44  1  0.00460000  0.82640000  0.28610000  1.0 -0.3148464608
O  O1  1  0.22450000  0.90050000  0.46390000  1.0 -0.6085348698
O  O2  1  0.70790000  0.26710000  0.03660000  1.0 -0.3666138994
O  O3  1  0.07260000  0.76000000  0.57380000  1.0 -0.5922205346
O  O4  1  0.38050000  0.87850000  0.54220000  1.0 -0.7335563946
O  O5  1  0.31130000  0.72590000  0.59250000  1.0 -0.6085348698
O  O6  1  0.90050000  0.22450000  0.03610000  1.0 -0.6085348698
O  O7  1  0.26710000  0.70790000  0.46340000  1.0 -0.3666138994
O  O8  1  0.76000000  0.07260000  0.92620000  1.0 -0.5922205346
O  O9  1  0.87850000  0.38050000  0.95780000  1.0 -0.7335563946
O  O10  1  0.72590000  0.31130000  0.90750000  1.0 -0.6085348698
O  O11  1  0.77550000  0.09950000  0.53610000  1.0 -0.6085348698
O  O12  1  0.29210000  0.73290000  0.96340000  1.0 -0.3666138994
O  O13  1  0.92740000  0.24000000  0.42620000  1.0 -0.5922205346
O  O14  1  0.61950000  0.12150000  0.45780000  1.0 -0.7335563946
O  O15  1  0.68870000  0.27410000  0.40750000  1.0 -0.6085348698
O  O16  1  0.09950000  0.77550000  0.96390000  1.0 -0.6085348698
O  O17  1  0.73290000  0.29210000  0.53660000  1.0 -0.3666138994
O  O18  1  0.24000000  0.92740000  0.07380000  1.0 -0.5922205346
O  O19  1  0.12150000  0.61950000  0.04220000  1.0 -0.7335563946
O  O20  1  0.27410000  0.68870000  0.09250000  1.0 -0.6085348698
