# DDEC6 charges by PACMAN v1.1 (https://github.com/mtap-research/PACMAN-charge/)
data_ZEJWOD_ASR_pacman
_symmetry_space_group_name_H-M   'P 1'
_cell_length_a   16.48130000
_cell_length_b   16.48130000
_cell_length_c   15.98560000
_cell_angle_alpha   82.96240000
_cell_angle_beta   97.03760000
_cell_angle_gamma   125.76500000
_symmetry_Int_Tables_number   1
_chemical_formula_structural   GdH12WC23N11O3
_chemical_formula_sum   'Gd4 H48 W4 C92 N44 O12'
_cell_volume   3489.82856630
_cell_formula_units_Z   4
loop_
 _symmetry_equiv_pos_site_id
 _symmetry_equiv_pos_as_xyz
  1  'x, y, z'
loop_
 _atom_site_type_symbol
 _atom_site_label
 _atom_site_symmetry_multiplicity
 _atom_site_fract_x
 _atom_site_fract_y
 _atom_site_fract_z
 _atom_site_occupancy
 _atom_site_charge
Gd  Gd1  1  0.79204000  0.23814000  0.46078000  1.0 1.8970404136
Gd  Gd2  1  0.23814000  0.79204000  0.03922000  1.0 1.8970404136
Gd  Gd3  1  0.20796000  0.76186000  0.53922000  1.0 1.8970404136
Gd  Gd4  1  0.76186000  0.20796000  0.96078000  1.0 1.8970404136
H  H1  1  0.78900000  0.14660000  0.68590000  1.0 0.1501647913
H  H2  1  0.68270000  0.04750000  0.79050000  1.0 0.1501647913
H  H3  1  0.52270000  0.82330000  0.63550000  1.0 0.1501647913
H  H4  1  0.63230000  0.92650000  0.53190000  1.0 0.1501647913
H  H5  1  0.48000000  0.84980000  0.98730000  1.0 0.1501647913
H  H6  1  0.60180000  0.92720000  0.89180000  1.0 0.1501647913
H  H7  1  0.39170000  0.78190000  0.70810000  1.0 0.1501647913
H  H8  1  0.27270000  0.70230000  0.80880000  1.0 0.1501647913
H  H9  1  0.03710000  0.24330000  0.54800000  1.0 0.1413556113
H  H10  1  0.06470000  0.12430000  0.58650000  1.0 0.1576402689
H  H11  1  0.90360000  0.98140000  0.38340000  1.0 0.1576402689
H  H12  1  0.87200000  0.09980000  0.35030000  1.0 0.1413556113
H  H13  1  0.14660000  0.78900000  0.81410000  1.0 0.1501647913
H  H14  1  0.04750000  0.68270000  0.70950000  1.0 0.1501647913
H  H15  1  0.82330000  0.52270000  0.86450000  1.0 0.1501647913
H  H16  1  0.92650000  0.63230000  0.96810000  1.0 0.1501647913
H  H17  1  0.84980000  0.48000000  0.51270000  1.0 0.1501647913
H  H18  1  0.92720000  0.60180000  0.60820000  1.0 0.1501647913
H  H19  1  0.78190000  0.39170000  0.79190000  1.0 0.1501647913
H  H20  1  0.70230000  0.27270000  0.69120000  1.0 0.1501647913
H  H21  1  0.24330000  0.03710000  0.95200000  1.0 0.1413556113
H  H22  1  0.12430000  0.06470000  0.91350000  1.0 0.1576402689
H  H23  1  0.98140000  0.90360000  0.11660000  1.0 0.1576402689
H  H24  1  0.09980000  0.87200000  0.14970000  1.0 0.1413556113
H  H25  1  0.21100000  0.85340000  0.31410000  1.0 0.1501647913
H  H26  1  0.31730000  0.95250000  0.20950000  1.0 0.1501647913
H  H27  1  0.47730000  0.17670000  0.36450000  1.0 0.1501647913
H  H28  1  0.36770000  0.07350000  0.46810000  1.0 0.1501647913
H  H29  1  0.52000000  0.15020000  0.01270000  1.0 0.1501647913
H  H30  1  0.39820000  0.07280000  0.10820000  1.0 0.1501647913
H  H31  1  0.60830000  0.21810000  0.29190000  1.0 0.1501647913
H  H32  1  0.72730000  0.29770000  0.19120000  1.0 0.1501647913
H  H33  1  0.96290000  0.75670000  0.45200000  1.0 0.1413556113
H  H34  1  0.93530000  0.87570000  0.41350000  1.0 0.1576402689
H  H35  1  0.09640000  0.01860000  0.61660000  1.0 0.1576402689
H  H36  1  0.12800000  0.90020000  0.64970000  1.0 0.1413556113
H  H37  1  0.85340000  0.21100000  0.18590000  1.0 0.1501647913
H  H38  1  0.95250000  0.31730000  0.29050000  1.0 0.1501647913
H  H39  1  0.17670000  0.47730000  0.13550000  1.0 0.1501647913
H  H40  1  0.07350000  0.36770000  0.03190000  1.0 0.1501647913
H  H41  1  0.15020000  0.52000000  0.48730000  1.0 0.1501647913
H  H42  1  0.07280000  0.39820000  0.39180000  1.0 0.1501647913
H  H43  1  0.21810000  0.60830000  0.20810000  1.0 0.1501647913
H  H44  1  0.29770000  0.72730000  0.30880000  1.0 0.1501647913
H  H45  1  0.75670000  0.96290000  0.04800000  1.0 0.1413556113
H  H46  1  0.87570000  0.93530000  0.08650000  1.0 0.1576402689
H  H47  1  0.01860000  0.09640000  0.88340000  1.0 0.1576402689
H  H48  1  0.90020000  0.12800000  0.85030000  1.0 0.1413556113
W  W1  1  0.59942000  0.91942000  0.24329000  1.0 0.6284253466
W  W2  1  0.91942000  0.59942000  0.25671000  1.0 0.6284253466
W  W3  1  0.40058000  0.08058000  0.75671000  1.0 0.6284253466
W  W4  1  0.08058000  0.40058000  0.74329000  1.0 0.6284253466
C  C1  1  0.73440000  0.08160000  0.67580000  1.0 -0.0192407216
C  C2  1  0.67020000  0.02200000  0.73810000  1.0 -0.151040243
C  C3  1  0.58650000  0.92430000  0.72530000  1.0 0.1001104246
C  C4  1  0.57520000  0.88900000  0.64650000  1.0 -0.1686610487
C  C5  1  0.64110000  0.95050000  0.58430000  1.0 0.008449484
C  C6  1  0.46220000  0.83660000  0.93060000  1.0 0.008449484
C  C7  1  0.53490000  0.88350000  0.87330000  1.0 -0.151040243
C  C8  1  0.51010000  0.86650000  0.78870000  1.0 0.0935152173
C  C9  1  0.41090000  0.79710000  0.76440000  1.0 -0.1612402741
C  C10  1  0.33960000  0.75000000  0.82480000  1.0 0.027085321
C  C11  1  0.00820000  0.18860000  0.51540000  1.0 0.008449484
C  C12  1  0.02610000  0.11830000  0.53690000  1.0 -0.1686610487
C  C13  1  0.98990000  0.03770000  0.48900000  1.0 0.1001104246
C  C14  1  0.93110000  0.03370000  0.41860000  1.0 -0.151040243
C  C15  1  0.91180000  0.10440000  0.39870000  1.0 -0.0030858815
C  C16  1  0.68340000  0.06400000  0.29740000  1.0 0.0437755165
C  C17  1  0.64150000  0.02490000  0.13460000  1.0 0.0599067848
C  C18  1  0.46350000  0.88710000  0.17450000  1.0 0.0599067848
C  C19  1  0.59160000  0.83580000  0.14500000  1.0 -0.0192407216
C  C20  1  0.49530000  0.75990000  0.27590000  1.0 0.0242841215
C  C21  1  0.51460000  0.91720000  0.33810000  1.0 -0.0030858815
C  C22  1  0.65790000  0.88330000  0.35930000  1.0 -0.0030858815
C  C23  1  0.75170000  0.97410000  0.22700000  1.0 -0.0192407216
C  C24  1  0.08160000  0.73440000  0.82420000  1.0 -0.0192407216
C  C25  1  0.02200000  0.67020000  0.76190000  1.0 -0.151040243
C  C26  1  0.92430000  0.58650000  0.77470000  1.0 0.1001104246
C  C27  1  0.88900000  0.57520000  0.85350000  1.0 -0.1686610487
C  C28  1  0.95050000  0.64110000  0.91570000  1.0 0.008449484
C  C29  1  0.83660000  0.46220000  0.56940000  1.0 0.008449484
C  C30  1  0.88350000  0.53490000  0.62670000  1.0 -0.151040243
C  C31  1  0.86650000  0.51010000  0.71130000  1.0 0.0935152173
C  C32  1  0.79710000  0.41090000  0.73560000  1.0 -0.1612402741
C  C33  1  0.75000000  0.33960000  0.67520000  1.0 0.027085321
C  C34  1  0.18860000  0.00820000  0.98460000  1.0 0.008449484
C  C35  1  0.11830000  0.02610000  0.96310000  1.0 -0.1686610487
C  C36  1  0.03770000  0.98990000  0.01100000  1.0 0.1001104246
C  C37  1  0.03370000  0.93110000  0.08140000  1.0 -0.151040243
C  C38  1  0.10440000  0.91180000  0.10130000  1.0 -0.0030858815
C  C39  1  0.06400000  0.68340000  0.20260000  1.0 0.0437755165
C  C40  1  0.02490000  0.64150000  0.36540000  1.0 0.0599067848
C  C41  1  0.88710000  0.46350000  0.32550000  1.0 0.0599067848
C  C42  1  0.83580000  0.59160000  0.35500000  1.0 -0.0192407216
C  C43  1  0.75990000  0.49530000  0.22410000  1.0 0.0242841215
C  C44  1  0.91720000  0.51460000  0.16190000  1.0 -0.0030858815
C  C45  1  0.88330000  0.65790000  0.14070000  1.0 -0.0030858815
C  C46  1  0.97410000  0.75170000  0.27300000  1.0 -0.0149228825
C  C47  1  0.26560000  0.91840000  0.32420000  1.0 -0.0192407216
C  C48  1  0.32980000  0.97800000  0.26190000  1.0 -0.151040243
C  C49  1  0.41350000  0.07570000  0.27470000  1.0 0.1001104246
C  C50  1  0.42480000  0.11100000  0.35350000  1.0 -0.1686610487
C  C51  1  0.35890000  0.04950000  0.41570000  1.0 0.008449484
C  C52  1  0.53780000  0.16340000  0.06940000  1.0 0.008449484
C  C53  1  0.46510000  0.11650000  0.12670000  1.0 -0.151040243
C  C54  1  0.48990000  0.13350000  0.21130000  1.0 0.0935152173
C  C55  1  0.58910000  0.20290000  0.23560000  1.0 -0.1612402741
C  C56  1  0.66040000  0.25000000  0.17520000  1.0 0.027085321
C  C57  1  0.99180000  0.81140000  0.48460000  1.0 0.008449484
C  C58  1  0.97390000  0.88170000  0.46310000  1.0 -0.1686610487
C  C59  1  0.01010000  0.96230000  0.51100000  1.0 0.1001104246
C  C60  1  0.06890000  0.96630000  0.58140000  1.0 -0.151040243
C  C61  1  0.08820000  0.89560000  0.60130000  1.0 -0.0030858815
C  C62  1  0.31660000  0.93600000  0.70260000  1.0 0.0437755165
C  C63  1  0.35850000  0.97510000  0.86540000  1.0 0.0599067848
C  C64  1  0.53650000  0.11290000  0.82550000  1.0 0.0599067848
C  C65  1  0.40840000  0.16420000  0.85500000  1.0 -0.0192407216
C  C66  1  0.50470000  0.24010000  0.72410000  1.0 0.0242841215
C  C67  1  0.48540000  0.08280000  0.66190000  1.0 -0.0030858815
C  C68  1  0.34210000  0.11670000  0.64070000  1.0 -0.0030858815
C  C69  1  0.24830000  0.02590000  0.77300000  1.0 -0.0192407216
C  C70  1  0.91840000  0.26560000  0.17580000  1.0 -0.0192407216
C  C71  1  0.97800000  0.32980000  0.23810000  1.0 -0.151040243
C  C72  1  0.07570000  0.41350000  0.22530000  1.0 0.1001104246
C  C73  1  0.11100000  0.42480000  0.14650000  1.0 -0.1686610487
C  C74  1  0.04950000  0.35890000  0.08430000  1.0 0.0048297243
C  C75  1  0.16340000  0.53780000  0.43060000  1.0 0.008449484
C  C76  1  0.11650000  0.46510000  0.37330000  1.0 -0.151040243
C  C77  1  0.13350000  0.48990000  0.28870000  1.0 0.0935152173
C  C78  1  0.20290000  0.58910000  0.26440000  1.0 -0.1612402741
C  C79  1  0.25000000  0.66040000  0.32480000  1.0 0.027085321
C  C80  1  0.81140000  0.99180000  0.01540000  1.0 0.008449484
C  C81  1  0.88170000  0.97390000  0.03690000  1.0 -0.1686610487
C  C82  1  0.96230000  0.01010000  0.98900000  1.0 0.1001104246
C  C83  1  0.96630000  0.06890000  0.91860000  1.0 -0.151040243
C  C84  1  0.89560000  0.08820000  0.89870000  1.0 -0.0030858815
C  C85  1  0.93600000  0.31660000  0.79740000  1.0 0.0437755165
C  C86  1  0.97510000  0.35850000  0.63460000  1.0 0.0599067848
C  C87  1  0.11290000  0.53650000  0.67450000  1.0 0.0599067848
C  C88  1  0.16420000  0.40840000  0.64500000  1.0 -0.0192407216
C  C89  1  0.24010000  0.50470000  0.77590000  1.0 0.0242841215
C  C90  1  0.08280000  0.48540000  0.83810000  1.0 -0.0030858815
C  C91  1  0.11670000  0.34210000  0.85930000  1.0 -0.0030858815
C  C92  1  0.02590000  0.24830000  0.72700000  1.0 -0.0192407216
N  N1  1  0.71807000  0.04533000  0.60030000  1.0 0.3255067635
N  N2  1  0.36650000  0.77270000  0.90530000  1.0 0.3230319488
N  N3  1  0.94967000  0.17933000  0.44820000  1.0 0.3017566818
N  N4  1  0.72790000  0.13790000  0.33100000  1.0 -0.4692960214
N  N5  1  0.66730000  0.07990000  0.07490000  1.0 -0.4626634401
N  N6  1  0.38890000  0.86530000  0.13570000  1.0 -0.4853797388
N  N7  1  0.58760000  0.79160000  0.09240000  1.0 -0.316923095
N  N8  1  0.44260000  0.67660000  0.29280000  1.0 -0.2236009371
N  N9  1  0.47600000  0.91940000  0.39150000  1.0 -0.316923095
N  N10  1  0.68570000  0.86190000  0.42140000  1.0 -0.316923095
N  N11  1  0.83480000  0.00460000  0.21810000  1.0 -0.3306462374
N  N12  1  0.04533000  0.71807000  0.89970000  1.0 0.3255067635
N  N13  1  0.77270000  0.36650000  0.59470000  1.0 0.3230319488
N  N14  1  0.17933000  0.94967000  0.05180000  1.0 0.3017566818
N  N15  1  0.13790000  0.72790000  0.16900000  1.0 -0.4692960214
N  N16  1  0.07990000  0.66730000  0.42510000  1.0 -0.4626634401
N  N17  1  0.86530000  0.38890000  0.36430000  1.0 -0.4853797388
N  N18  1  0.79160000  0.58760000  0.40760000  1.0 -0.316923095
N  N19  1  0.67660000  0.44260000  0.20720000  1.0 -0.2236009371
N  N20  1  0.91940000  0.47600000  0.10850000  1.0 -0.316923095
N  N21  1  0.86190000  0.68570000  0.07860000  1.0 -0.316923095
N  N22  1  0.00460000  0.83480000  0.28190000  1.0 -0.3306462374
N  N23  1  0.28193000  0.95467000  0.39970000  1.0 0.3255067635
N  N24  1  0.63350000  0.22730000  0.09470000  1.0 0.3230319488
N  N25  1  0.05033000  0.82067000  0.55180000  1.0 0.3017566818
N  N26  1  0.27210000  0.86210000  0.66900000  1.0 -0.4692960214
N  N27  1  0.33270000  0.92010000  0.92510000  1.0 -0.4626634401
N  N28  1  0.61110000  0.13470000  0.86430000  1.0 -0.4853797388
N  N29  1  0.41240000  0.20840000  0.90760000  1.0 -0.316923095
N  N30  1  0.55740000  0.32340000  0.70720000  1.0 -0.2236009371
N  N31  1  0.52400000  0.08060000  0.60850000  1.0 -0.316923095
N  N32  1  0.31430000  0.13810000  0.57860000  1.0 -0.316923095
N  N33  1  0.16520000  0.99540000  0.78190000  1.0 -0.3306462374
N  N34  1  0.95467000  0.28193000  0.10030000  1.0 0.3255067635
N  N35  1  0.22730000  0.63350000  0.40530000  1.0 0.3230319488
N  N36  1  0.82067000  0.05033000  0.94820000  1.0 0.3017566818
N  N37  1  0.86210000  0.27210000  0.83100000  1.0 -0.4692960214
N  N38  1  0.92010000  0.33270000  0.57490000  1.0 -0.4626634401
N  N39  1  0.13470000  0.61110000  0.63570000  1.0 -0.4853797388
N  N40  1  0.20840000  0.41240000  0.59240000  1.0 -0.316923095
N  N41  1  0.32340000  0.55740000  0.79280000  1.0 -0.2236009371
N  N42  1  0.08060000  0.52400000  0.89150000  1.0 -0.316923095
N  N43  1  0.13810000  0.31430000  0.92140000  1.0 -0.316923095
N  N44  1  0.99540000  0.16520000  0.71810000  1.0 -0.3306462374
O  O1  1  0.77971000  0.10529000  0.53930000  1.0 -0.6296933893
O  O2  1  0.29730000  0.72970000  0.96260000  1.0 -0.6296933893
O  O3  1  0.92950000  0.24710000  0.42910000  1.0 -0.6075006556
O  O4  1  0.10529000  0.77971000  0.96070000  1.0 -0.6352246237
O  O5  1  0.72970000  0.29730000  0.53740000  1.0 -0.6296933893
O  O6  1  0.24710000  0.92950000  0.07090000  1.0 -0.6075006556
O  O7  1  0.22029000  0.89471000  0.46070000  1.0 -0.6296933893
O  O8  1  0.70270000  0.27030000  0.03740000  1.0 -0.6296933893
O  O9  1  0.07050000  0.75290000  0.57090000  1.0 -0.6075006556
O  O10  1  0.89471000  0.22029000  0.03930000  1.0 -0.6296933893
O  O11  1  0.27030000  0.70270000  0.46260000  1.0 -0.6296933893
O  O12  1  0.75290000  0.07050000  0.92910000  1.0 -0.6075006556
