# DDEC6 charges by PACMAN v1.1 (https://github.com/mtap-research/PACMAN-charge/)
data_ZEJWAP_FSR_pacman
_symmetry_space_group_name_H-M   'P 1'
_cell_length_a   16.41280000
_cell_length_b   16.41280000
_cell_length_c   15.59600000
_cell_angle_alpha   83.62750000
_cell_angle_beta   96.37250000
_cell_angle_gamma   127.23700000
_symmetry_Int_Tables_number   1
_chemical_formula_structural   TmH16WC23N11O5
_chemical_formula_sum   'Tm4 H64 W4 C92 N44 O20'
_cell_volume   3319.01034426
_cell_formula_units_Z   4
loop_
 _symmetry_equiv_pos_site_id
 _symmetry_equiv_pos_as_xyz
  1  'x, y, z'
loop_
 _atom_site_type_symbol
 _atom_site_label
 _atom_site_symmetry_multiplicity
 _atom_site_fract_x
 _atom_site_fract_y
 _atom_site_fract_z
 _atom_site_occupancy
 _atom_site_charge
Tm  Tm1  1  0.76852000  0.20412000  0.45793000  1.0 1.9116986397
Tm  Tm2  1  0.20412000  0.76852000  0.04207000  1.0 1.9116986397
Tm  Tm3  1  0.23148000  0.79588000  0.54207000  1.0 1.9116986397
Tm  Tm4  1  0.79588000  0.23148000  0.95793000  1.0 1.9116986397
H  H1  1  0.93980000  0.42040000  0.43470000  1.0 0.367302839
H  H2  1  0.88900000  0.37080000  0.51050000  1.0 0.3197188157
H  H3  1  0.71330000  0.32670000  0.40960000  1.0 0.3395145017
H  H4  1  0.85120000  0.21040000  0.68050000  1.0 0.1469339186
H  H5  1  0.94740000  0.32340000  0.78720000  1.0 0.1420890549
H  H6  1  0.18500000  0.48760000  0.63270000  1.0 0.1420890549
H  H7  1  0.08270000  0.37530000  0.52800000  1.0 0.1469339186
H  H8  1  0.15680000  0.52380000  0.99000000  1.0 0.1469339186
H  H9  1  0.06090000  0.40330000  0.88890000  1.0 0.1420890549
H  H10  1  0.22110000  0.62030000  0.70580000  1.0 0.2044829059
H  H11  1  0.30270000  0.74290000  0.81330000  1.0 0.1420890549
H  H12  1  0.74710000  0.94790000  0.53890000  1.0 0.1420890549
H  H13  1  0.87330000  0.93410000  0.58890000  1.0 0.1420890549
H  H14  1  0.02190000  0.09090000  0.38220000  1.0 0.1420890549
H  H15  1  0.90690000  0.12490000  0.33820000  1.0 0.1338703636
H  H16  1  0.64650000  0.23650000  0.36230000  1.0 0.2785571593
H  H17  1  0.42040000  0.93980000  0.06530000  1.0 0.367302839
H  H18  1  0.37080000  0.88900000  0.98950000  1.0 0.3197188157
H  H19  1  0.32670000  0.71330000  0.09040000  1.0 0.3395145017
H  H20  1  0.21040000  0.85120000  0.81950000  1.0 0.1469339186
H  H21  1  0.32340000  0.94740000  0.71280000  1.0 0.1420890549
H  H22  1  0.48760000  0.18500000  0.86730000  1.0 0.1420890549
H  H23  1  0.37530000  0.08270000  0.97200000  1.0 0.1469339186
H  H24  1  0.52380000  0.15680000  0.51000000  1.0 0.1469339186
H  H25  1  0.40330000  0.06090000  0.61110000  1.0 0.1420890549
H  H26  1  0.62030000  0.22110000  0.79420000  1.0 0.2062031332
H  H27  1  0.74290000  0.30270000  0.68670000  1.0 0.1420890549
H  H28  1  0.94790000  0.74710000  0.96110000  1.0 0.1420890549
H  H29  1  0.93410000  0.87330000  0.91110000  1.0 0.1420890549
H  H30  1  0.09090000  0.02190000  0.11780000  1.0 0.1420890549
H  H31  1  0.12490000  0.90690000  0.16180000  1.0 0.1338703636
H  H32  1  0.23650000  0.64650000  0.13770000  1.0 0.2785571593
H  H33  1  0.06020000  0.57960000  0.56530000  1.0 0.367302839
H  H34  1  0.11100000  0.62920000  0.48950000  1.0 0.3197188157
H  H35  1  0.28670000  0.67330000  0.59040000  1.0 0.3395145017
H  H36  1  0.14880000  0.78960000  0.31950000  1.0 0.1469339186
H  H37  1  0.05260000  0.67660000  0.21280000  1.0 0.1420890549
H  H38  1  0.81500000  0.51240000  0.36730000  1.0 0.1420890549
H  H39  1  0.91730000  0.62470000  0.47200000  1.0 0.1469339186
H  H40  1  0.84320000  0.47620000  0.01000000  1.0 0.1469339186
H  H41  1  0.93910000  0.59670000  0.11110000  1.0 0.1420890549
H  H42  1  0.77890000  0.37970000  0.29420000  1.0 0.2044829059
H  H43  1  0.69730000  0.25710000  0.18670000  1.0 0.1420890549
H  H44  1  0.25290000  0.05210000  0.46110000  1.0 0.1420890549
H  H45  1  0.12670000  0.06590000  0.41110000  1.0 0.1420890549
H  H46  1  0.97810000  0.90910000  0.61780000  1.0 0.1420890549
H  H47  1  0.09310000  0.87510000  0.66180000  1.0 0.1338703636
H  H48  1  0.35350000  0.76350000  0.63770000  1.0 0.2785571593
H  H49  1  0.57960000  0.06020000  0.93470000  1.0 0.367302839
H  H50  1  0.62920000  0.11100000  0.01050000  1.0 0.3197188157
H  H51  1  0.67330000  0.28670000  0.90960000  1.0 0.3395145017
H  H52  1  0.78960000  0.14880000  0.18050000  1.0 0.1469339186
H  H53  1  0.67660000  0.05260000  0.28720000  1.0 0.1420890549
H  H54  1  0.51240000  0.81500000  0.13270000  1.0 0.1420890549
H  H55  1  0.62470000  0.91730000  0.02800000  1.0 0.1469339186
H  H56  1  0.47620000  0.84320000  0.49000000  1.0 0.1469339186
H  H57  1  0.59670000  0.93910000  0.38890000  1.0 0.1420890549
H  H58  1  0.37970000  0.77890000  0.20580000  1.0 0.2062031332
H  H59  1  0.25710000  0.69730000  0.31330000  1.0 0.1420890549
H  H60  1  0.05210000  0.25290000  0.03890000  1.0 0.1420890549
H  H61  1  0.06590000  0.12670000  0.08890000  1.0 0.1420890549
H  H62  1  0.90910000  0.97810000  0.88220000  1.0 0.1420890549
H  H63  1  0.87510000  0.09310000  0.83820000  1.0 0.1338703636
H  H64  1  0.76350000  0.35350000  0.86230000  1.0 0.2785571593
W  W1  1  0.09050000  0.40598000  0.23885000  1.0 0.5326812072
W  W2  1  0.40598000  0.09050000  0.26115000  1.0 0.540602446
W  W3  1  0.90950000  0.59402000  0.76115000  1.0 0.5326812072
W  W4  1  0.59402000  0.90950000  0.73885000  1.0 0.5326812072
C  C1  1  0.91820000  0.26720000  0.67120000  1.0 -0.0570302845
C  C2  1  0.97660000  0.33600000  0.73490000  1.0 -0.1385461744
C  C3  1  0.07820000  0.42440000  0.72460000  1.0 0.0921753127
C  C4  1  0.11720000  0.43380000  0.64340000  1.0 -0.1681346722
C  C5  1  0.05590000  0.36470000  0.58100000  1.0 -0.0019460039
C  C6  1  0.16580000  0.54460000  0.93170000  1.0 -0.0272423809
C  C7  1  0.11250000  0.47090000  0.87170000  1.0 -0.1334231535
C  C8  1  0.13570000  0.49750000  0.78530000  1.0 0.0744885433
C  C9  1  0.20520000  0.59900000  0.76320000  1.0 -0.1385461744
C  C10  1  0.25410000  0.67370000  0.82810000  1.0 -0.0454056707
C  C11  1  0.80670000  0.98350000  0.50910000  1.0 -0.016173735
C  C12  1  0.88020000  0.96980000  0.53620000  1.0 -0.1584310975
C  C13  1  0.96360000  0.00620000  0.48980000  1.0 0.0790202919
C  C14  1  0.96730000  0.06370000  0.41690000  1.0 -0.1681346722
C  C15  1  0.89850000  0.08570000  0.38910000  1.0 -0.0272423809
C  C16  1  0.94200000  0.31900000  0.29510000  1.0 0.0368311344
C  C17  1  0.98310000  0.35910000  0.12780000  1.0 0.0582519568
C  C18  1  0.54130000  0.12390000  0.32610000  1.0 -0.016173735
C  C19  1  0.17370000  0.40970000  0.13690000  1.0 -0.0019460039
C  C20  1  0.08810000  0.49170000  0.34000000  1.0 0.0500375446
C  C21  1  0.12870000  0.34790000  0.36180000  1.0 0.0790202919
C  C22  1  0.03870000  0.25270000  0.22120000  1.0 -0.0062992695
C  C23  1  0.25100000  0.51280000  0.27270000  1.0 -0.0272423809
C  C24  1  0.26720000  0.91820000  0.82880000  1.0 -0.0570302845
C  C25  1  0.33600000  0.97660000  0.76510000  1.0 -0.1385461744
C  C26  1  0.42440000  0.07820000  0.77540000  1.0 0.0921753127
C  C27  1  0.43380000  0.11720000  0.85660000  1.0 -0.1681346722
C  C28  1  0.36470000  0.05590000  0.91900000  1.0 -0.0019460039
C  C29  1  0.54460000  0.16580000  0.56830000  1.0 -0.0272423809
C  C30  1  0.47090000  0.11250000  0.62830000  1.0 -0.1334231535
C  C31  1  0.49750000  0.13570000  0.71470000  1.0 0.0744885433
C  C32  1  0.59900000  0.20520000  0.73680000  1.0 -0.1334231535
C  C33  1  0.67370000  0.25410000  0.67190000  1.0 -0.0454056707
C  C34  1  0.98350000  0.80670000  0.99090000  1.0 -0.016173735
C  C35  1  0.96980000  0.88020000  0.96380000  1.0 -0.1584310975
C  C36  1  0.00620000  0.96360000  0.01020000  1.0 0.0790202919
C  C37  1  0.06370000  0.96730000  0.08310000  1.0 -0.1681346722
C  C38  1  0.08570000  0.89850000  0.11090000  1.0 -0.0272423809
C  C39  1  0.31900000  0.94200000  0.20490000  1.0 0.0368311344
C  C40  1  0.35910000  0.98310000  0.37220000  1.0 0.0582519568
C  C41  1  0.12390000  0.54130000  0.17390000  1.0 -0.016173735
C  C42  1  0.40970000  0.17370000  0.36310000  1.0 -0.0019460039
C  C43  1  0.49170000  0.08810000  0.16000000  1.0 0.0500375446
C  C44  1  0.34790000  0.12870000  0.13820000  1.0 0.0790202919
C  C45  1  0.25270000  0.03870000  0.27880000  1.0 -0.0062992695
C  C46  1  0.51280000  0.25100000  0.22730000  1.0 -0.0272423809
C  C47  1  0.08180000  0.73280000  0.32880000  1.0 -0.0570302845
C  C48  1  0.02340000  0.66400000  0.26510000  1.0 -0.1385461744
C  C49  1  0.92180000  0.57560000  0.27540000  1.0 0.0921753127
C  C50  1  0.88280000  0.56620000  0.35660000  1.0 -0.1681346722
C  C51  1  0.94410000  0.63530000  0.41900000  1.0 -0.0019460039
C  C52  1  0.83420000  0.45540000  0.06830000  1.0 -0.0272423809
C  C53  1  0.88750000  0.52910000  0.12830000  1.0 -0.1334231535
C  C54  1  0.86430000  0.50250000  0.21470000  1.0 0.0744885433
C  C55  1  0.79480000  0.40100000  0.23680000  1.0 -0.1334231535
C  C56  1  0.74590000  0.32630000  0.17190000  1.0 -0.0454056707
C  C57  1  0.19330000  0.01650000  0.49090000  1.0 -0.016173735
C  C58  1  0.11980000  0.03020000  0.46380000  1.0 -0.1584310975
C  C59  1  0.03640000  0.99380000  0.51020000  1.0 0.0790202919
C  C60  1  0.03270000  0.93630000  0.58310000  1.0 -0.1681346722
C  C61  1  0.10150000  0.91430000  0.61090000  1.0 -0.0272423809
C  C62  1  0.05800000  0.68100000  0.70490000  1.0 0.0368311344
C  C63  1  0.01690000  0.64090000  0.87220000  1.0 0.0582519568
C  C64  1  0.45870000  0.87610000  0.67390000  1.0 -0.016173735
C  C65  1  0.82630000  0.59030000  0.86310000  1.0 -0.0019460039
C  C66  1  0.91190000  0.50830000  0.66000000  1.0 0.0500375446
C  C67  1  0.87130000  0.65210000  0.63820000  1.0 0.0790202919
C  C68  1  0.96130000  0.74730000  0.77880000  1.0 -0.0062992695
C  C69  1  0.74900000  0.48720000  0.72730000  1.0 -0.0272423809
C  C70  1  0.73280000  0.08180000  0.17120000  1.0 -0.0570302845
C  C71  1  0.66400000  0.02340000  0.23490000  1.0 -0.1385461744
C  C72  1  0.57560000  0.92180000  0.22460000  1.0 0.0921753127
C  C73  1  0.56620000  0.88280000  0.14340000  1.0 -0.1681346722
C  C74  1  0.63530000  0.94410000  0.08100000  1.0 -0.0019460039
C  C75  1  0.45540000  0.83420000  0.43170000  1.0 -0.0272423809
C  C76  1  0.52910000  0.88750000  0.37170000  1.0 -0.1334231535
C  C77  1  0.50250000  0.86430000  0.28530000  1.0 0.0744885433
C  C78  1  0.40100000  0.79480000  0.26320000  1.0 -0.1334231535
C  C79  1  0.32630000  0.74590000  0.32810000  1.0 -0.0454056707
C  C80  1  0.01650000  0.19330000  0.00910000  1.0 -0.016173735
C  C81  1  0.03020000  0.11980000  0.03620000  1.0 -0.1584310975
C  C82  1  0.99380000  0.03640000  0.98980000  1.0 0.0790202919
C  C83  1  0.93630000  0.03270000  0.91690000  1.0 -0.1681346722
C  C84  1  0.91430000  0.10150000  0.88910000  1.0 -0.0272423809
C  C85  1  0.68100000  0.05800000  0.79510000  1.0 0.0368311344
C  C86  1  0.64090000  0.01690000  0.62780000  1.0 0.0582519568
C  C87  1  0.87610000  0.45870000  0.82610000  1.0 -0.016173735
C  C88  1  0.59030000  0.82630000  0.63690000  1.0 -0.0019460039
C  C89  1  0.50830000  0.91190000  0.84000000  1.0 0.0500375446
C  C90  1  0.65210000  0.87130000  0.86180000  1.0 0.0790202919
C  C91  1  0.74730000  0.96130000  0.72120000  1.0 -0.0062992695
C  C92  1  0.48720000  0.74900000  0.77270000  1.0 -0.0272423809
N  N1  1  0.96030000  0.28350000  0.59350000  1.0 0.3197188157
N  N2  1  0.22820000  0.64180000  0.91050000  1.0 0.3335515413
N  N3  1  0.81770000  0.04770000  0.43990000  1.0 0.367302839
N  N4  1  0.86560000  0.27180000  0.32690000  1.0 -0.4654980597
N  N5  1  0.92770000  0.33410000  0.07080000  1.0 -0.4860011336
N  N6  1  0.62050000  0.14470000  0.36430000  1.0 -0.4203805175
N  N7  1  0.21620000  0.41760000  0.08240000  1.0 -0.304248571
N  N8  1  0.08540000  0.52340000  0.39280000  1.0 -0.3505712745
N  N9  1  0.14860000  0.32140000  0.41460000  1.0 -0.31922804
N  N10  1  0.00070000  0.16550000  0.21250000  1.0 -0.3392879661
N  N11  1  0.34170000  0.56310000  0.29460000  1.0 -0.31922804
N  N12  1  0.28350000  0.96030000  0.90650000  1.0 0.3197188157
N  N13  1  0.64180000  0.22820000  0.58950000  1.0 0.3335515413
N  N14  1  0.04770000  0.81770000  0.06010000  1.0 0.367302839
N  N15  1  0.27180000  0.86560000  0.17310000  1.0 -0.4654980597
N  N16  1  0.33410000  0.92770000  0.42920000  1.0 -0.4860011336
N  N17  1  0.14470000  0.62050000  0.13570000  1.0 -0.4203805175
N  N18  1  0.41760000  0.21620000  0.41760000  1.0 -0.304248571
N  N19  1  0.52340000  0.08540000  0.10720000  1.0 -0.3505712745
N  N20  1  0.32140000  0.14860000  0.08540000  1.0 -0.3142259117
N  N21  1  0.16550000  0.00070000  0.28750000  1.0 -0.3392879661
N  N22  1  0.56310000  0.34170000  0.20540000  1.0 -0.31922804
N  N23  1  0.03970000  0.71650000  0.40650000  1.0 0.3197188157
N  N24  1  0.77180000  0.35820000  0.08950000  1.0 0.3335515413
N  N25  1  0.18230000  0.95230000  0.56010000  1.0 0.367302839
N  N26  1  0.13440000  0.72820000  0.67310000  1.0 -0.4654980597
N  N27  1  0.07230000  0.66590000  0.92920000  1.0 -0.4860011336
N  N28  1  0.37950000  0.85530000  0.63570000  1.0 -0.4203805175
N  N29  1  0.78380000  0.58240000  0.91760000  1.0 -0.304248571
N  N30  1  0.91460000  0.47660000  0.60720000  1.0 -0.3505712745
N  N31  1  0.85140000  0.67860000  0.58540000  1.0 -0.31922804
N  N32  1  0.99930000  0.83450000  0.78750000  1.0 -0.3392879661
N  N33  1  0.65830000  0.43690000  0.70540000  1.0 -0.31922804
N  N34  1  0.71650000  0.03970000  0.09350000  1.0 0.3197188157
N  N35  1  0.35820000  0.77180000  0.41050000  1.0 0.3335515413
N  N36  1  0.95230000  0.18230000  0.93990000  1.0 0.367302839
N  N37  1  0.72820000  0.13440000  0.82690000  1.0 -0.4654980597
N  N38  1  0.66590000  0.07230000  0.57080000  1.0 -0.4860011336
N  N39  1  0.85530000  0.37950000  0.86430000  1.0 -0.4203805175
N  N40  1  0.58240000  0.78380000  0.58240000  1.0 -0.304248571
N  N41  1  0.47660000  0.91460000  0.89280000  1.0 -0.3505712745
N  N42  1  0.67860000  0.85140000  0.91460000  1.0 -0.31922804
N  N43  1  0.83450000  0.99930000  0.71250000  1.0 -0.3392879661
N  N44  1  0.43690000  0.65830000  0.79460000  1.0 -0.31922804
O  O1  1  0.90250000  0.22090000  0.52960000  1.0 -0.6313409802
O  O2  1  0.26860000  0.70720000  0.96110000  1.0 -0.4203805175
O  O3  1  0.75580000  0.06820000  0.41730000  1.0 -0.5340206471
O  O4  1  0.88160000  0.38220000  0.45670000  1.0 -0.7860638347
O  O5  1  0.70780000  0.28540000  0.37690000  1.0 -0.5134156939
O  O6  1  0.22090000  0.90250000  0.97040000  1.0 -0.6313409802
O  O7  1  0.70720000  0.26860000  0.53890000  1.0 -0.4203805175
O  O8  1  0.06820000  0.75580000  0.08270000  1.0 -0.5340206471
O  O9  1  0.38220000  0.88160000  0.04330000  1.0 -0.7860638347
O  O10  1  0.28540000  0.70780000  0.12310000  1.0 -0.5134156939
O  O11  1  0.09750000  0.77910000  0.47040000  1.0 -0.6313409802
O  O12  1  0.73140000  0.29280000  0.03890000  1.0 -0.4203805175
O  O13  1  0.24420000  0.93180000  0.58270000  1.0 -0.5340206471
O  O14  1  0.11840000  0.61780000  0.54330000  1.0 -0.7860638347
O  O15  1  0.29220000  0.71460000  0.62310000  1.0 -0.5134156939
O  O16  1  0.77910000  0.09750000  0.02960000  1.0 -0.6313409802
O  O17  1  0.29280000  0.73140000  0.46110000  1.0 -0.4203805175
O  O18  1  0.93180000  0.24420000  0.91730000  1.0 -0.5340206471
O  O19  1  0.61780000  0.11840000  0.95670000  1.0 -0.7860638347
O  O20  1  0.71460000  0.29220000  0.87690000  1.0 -0.5134156939
