# DDEC6 charges by PACMAN v1.1 (https://github.com/mtap-research/PACMAN-charge/)
data_ZEJWIX_FSR_pacman
_symmetry_space_group_name_H-M   'P 1'
_cell_length_a   16.40150000
_cell_length_b   16.40150000
_cell_length_c   15.65090000
_cell_angle_alpha   83.81810000
_cell_angle_beta   96.18190000
_cell_angle_gamma   127.03500000
_symmetry_Int_Tables_number   1
_chemical_formula_structural   ErH14WC23N11O4
_chemical_formula_sum   'Er4 H56 W4 C92 N44 O16'
_cell_volume   3336.48364624
_cell_formula_units_Z   4
loop_
 _symmetry_equiv_pos_site_id
 _symmetry_equiv_pos_as_xyz
  1  'x, y, z'
loop_
 _atom_site_type_symbol
 _atom_site_label
 _atom_site_symmetry_multiplicity
 _atom_site_fract_x
 _atom_site_fract_y
 _atom_site_fract_z
 _atom_site_occupancy
 _atom_site_charge
Er  Er1  1  0.23128000  0.79576000  0.54237000  1.0 1.9585478173
Er  Er2  1  0.79576000  0.23128000  0.95763000  1.0 1.9585478173
Er  Er3  1  0.76872000  0.20424000  0.45763000  1.0 1.9585478173
Er  Er4  1  0.20424000  0.76872000  0.04237000  1.0 1.9585478173
H  H1  1  0.06560000  0.58320000  0.56750000  1.0 0.3480320888
H  H2  1  0.11320000  0.59500000  0.49730000  1.0 0.3480320888
H  H3  1  0.14420000  0.78940000  0.32040000  1.0 0.1508556602
H  H4  1  0.05070000  0.67050000  0.21740000  1.0 0.1508556602
H  H5  1  0.81530000  0.51050000  0.37000000  1.0 0.1508556602
H  H6  1  0.91380000  0.63080000  0.47370000  1.0 0.1508556602
H  H7  1  0.85230000  0.47450000  0.01090000  1.0 0.1508556602
H  H8  1  0.92770000  0.59690000  0.11170000  1.0 0.1564153735
H  H9  1  0.77610000  0.37970000  0.29410000  1.0 0.1508556602
H  H10  1  0.70060000  0.25720000  0.18950000  1.0 0.1407357732
H  H11  1  0.25260000  0.04820000  0.46230000  1.0 0.1407357732
H  H12  1  0.12840000  0.06560000  0.41370000  1.0 0.1564153735
H  H13  1  0.97000000  0.90100000  0.61320000  1.0 0.1564153735
H  H14  1  0.10040000  0.88300000  0.66330000  1.0 0.1407357732
H  H15  1  0.58320000  0.06560000  0.93250000  1.0 0.3480320888
H  H16  1  0.59500000  0.11320000  0.00270000  1.0 0.3480320888
H  H17  1  0.78940000  0.14420000  0.17960000  1.0 0.1508556602
H  H18  1  0.67050000  0.05070000  0.28260000  1.0 0.1508556602
H  H19  1  0.51050000  0.81530000  0.13000000  1.0 0.1508556602
H  H20  1  0.63080000  0.91380000  0.02630000  1.0 0.1508556602
H  H21  1  0.47450000  0.85230000  0.48910000  1.0 0.1508556602
H  H22  1  0.59690000  0.92770000  0.38830000  1.0 0.1564153735
H  H23  1  0.37970000  0.77610000  0.20590000  1.0 0.1508556602
H  H24  1  0.25720000  0.70060000  0.31050000  1.0 0.1407357732
H  H25  1  0.04820000  0.25260000  0.03770000  1.0 0.1407357732
H  H26  1  0.06560000  0.12840000  0.08630000  1.0 0.1564153735
H  H27  1  0.90100000  0.97000000  0.88680000  1.0 0.1564153735
H  H28  1  0.88300000  0.10040000  0.83670000  1.0 0.1407357732
H  H29  1  0.93440000  0.41680000  0.43250000  1.0 0.3480320888
H  H30  1  0.88680000  0.40500000  0.50270000  1.0 0.3480320888
H  H31  1  0.85580000  0.21060000  0.67960000  1.0 0.1508556602
H  H32  1  0.94930000  0.32950000  0.78260000  1.0 0.1508556602
H  H33  1  0.18470000  0.48950000  0.63000000  1.0 0.1508556602
H  H34  1  0.08620000  0.36920000  0.52630000  1.0 0.1508556602
H  H35  1  0.14770000  0.52550000  0.98910000  1.0 0.1508556602
H  H36  1  0.07230000  0.40310000  0.88830000  1.0 0.1564153735
H  H37  1  0.22390000  0.62030000  0.70590000  1.0 0.1508556602
H  H38  1  0.29940000  0.74280000  0.81050000  1.0 0.1407357732
H  H39  1  0.74740000  0.95180000  0.53770000  1.0 0.1407357732
H  H40  1  0.87160000  0.93440000  0.58630000  1.0 0.1564153735
H  H41  1  0.03000000  0.09900000  0.38680000  1.0 0.1564153735
H  H42  1  0.89960000  0.11700000  0.33670000  1.0 0.1407357732
H  H43  1  0.41680000  0.93440000  0.06750000  1.0 0.3480320888
H  H44  1  0.40500000  0.88680000  0.99730000  1.0 0.3480320888
H  H45  1  0.21060000  0.85580000  0.82040000  1.0 0.1508556602
H  H46  1  0.32950000  0.94930000  0.71740000  1.0 0.1508556602
H  H47  1  0.48950000  0.18470000  0.87000000  1.0 0.1508556602
H  H48  1  0.36920000  0.08620000  0.97370000  1.0 0.1508556602
H  H49  1  0.52550000  0.14770000  0.51090000  1.0 0.1508556602
H  H50  1  0.40310000  0.07230000  0.61170000  1.0 0.1564153735
H  H51  1  0.62030000  0.22390000  0.79410000  1.0 0.1508556602
H  H52  1  0.74280000  0.29940000  0.68950000  1.0 0.1407357732
H  H53  1  0.95180000  0.74740000  0.96230000  1.0 0.1407357732
H  H54  1  0.93440000  0.87160000  0.91370000  1.0 0.1564153735
H  H55  1  0.09900000  0.03000000  0.11320000  1.0 0.1564153735
H  H56  1  0.11700000  0.89960000  0.16330000  1.0 0.1407357732
W  W1  1  0.90806000  0.59458000  0.76149000  1.0 0.5775158124
W  W2  1  0.59458000  0.90806000  0.73851000  1.0 0.5775158124
W  W3  1  0.09194000  0.40542000  0.23851000  1.0 0.5775158124
W  W4  1  0.40542000  0.09194000  0.26149000  1.0 0.5775158124
C  C1  1  0.07820000  0.73180000  0.33060000  1.0 -0.0325811693
C  C2  1  0.02090000  0.66230000  0.26800000  1.0 -0.1492645525
C  C3  1  0.91890000  0.57950000  0.27940000  1.0 0.1016029258
C  C4  1  0.88150000  0.56710000  0.35860000  1.0 -0.1697747654
C  C5  1  0.94110000  0.63790000  0.42190000  1.0 0.0027053457
C  C6  1  0.83720000  0.45560000  0.06850000  1.0 -0.0028411854
C  C7  1  0.88230000  0.52810000  0.12880000  1.0 -0.1492645525
C  C8  1  0.86120000  0.50000000  0.21430000  1.0 0.0905849131
C  C9  1  0.79290000  0.40010000  0.23700000  1.0 -0.1492645525
C  C10  1  0.74710000  0.32630000  0.17440000  1.0 0.0111627607
C  C11  1  0.19320000  0.01480000  0.49200000  1.0 0.0173462711
C  C12  1  0.12160000  0.02880000  0.46540000  1.0 -0.1697747654
C  C13  1  0.03810000  0.98970000  0.51330000  1.0 0.1016029258
C  C14  1  0.02810000  0.93270000  0.58200000  1.0 -0.1444940848
C  C15  1  0.10390000  0.91730000  0.61080000  1.0 0.0173462711
C  C16  1  0.05570000  0.68250000  0.70650000  1.0 0.0458124762
C  C17  1  0.01810000  0.64090000  0.87190000  1.0 0.0602274693
C  C18  1  0.87410000  0.45470000  0.82800000  1.0 0.0407167299
C  C19  1  0.82450000  0.58470000  0.86520000  1.0 -0.009371949
C  C20  1  0.74500000  0.48700000  0.72870000  1.0 0.0111627607
C  C21  1  0.90770000  0.51190000  0.66270000  1.0 0.0173462711
C  C22  1  0.87240000  0.65220000  0.64370000  1.0 -0.009371949
C  C23  1  0.96400000  0.74940000  0.77910000  1.0 -0.009371949
C  C24  1  0.73180000  0.07820000  0.16940000  1.0 -0.0325811693
C  C25  1  0.66230000  0.02090000  0.23200000  1.0 -0.1444940848
C  C26  1  0.57950000  0.91890000  0.22060000  1.0 0.1016029258
C  C27  1  0.56710000  0.88150000  0.14140000  1.0 -0.1697747654
C  C28  1  0.63790000  0.94110000  0.07810000  1.0 0.0027053457
C  C29  1  0.45560000  0.83720000  0.43150000  1.0 -0.0028411854
C  C30  1  0.52810000  0.88230000  0.37120000  1.0 -0.1492645525
C  C31  1  0.50000000  0.86120000  0.28570000  1.0 0.0905849131
C  C32  1  0.40010000  0.79290000  0.26300000  1.0 -0.1492645525
C  C33  1  0.32630000  0.74710000  0.32560000  1.0 0.0111627607
C  C34  1  0.01480000  0.19320000  0.00800000  1.0 0.0173462711
C  C35  1  0.02880000  0.12160000  0.03460000  1.0 -0.1697747654
C  C36  1  0.98970000  0.03810000  0.98670000  1.0 0.1016029258
C  C37  1  0.93270000  0.02810000  0.91800000  1.0 -0.1444940848
C  C38  1  0.91730000  0.10390000  0.88920000  1.0 0.0173462711
C  C39  1  0.68250000  0.05570000  0.79350000  1.0 0.0458124762
C  C40  1  0.64090000  0.01810000  0.62810000  1.0 0.0602274693
C  C41  1  0.45470000  0.87410000  0.67200000  1.0 0.0407167299
C  C42  1  0.58470000  0.82450000  0.63480000  1.0 -0.009371949
C  C43  1  0.48700000  0.74500000  0.77130000  1.0 0.0173462711
C  C44  1  0.51190000  0.90770000  0.83730000  1.0 0.0173462711
C  C45  1  0.65220000  0.87240000  0.85630000  1.0 -0.0028411854
C  C46  1  0.74940000  0.96400000  0.72090000  1.0 -0.009371949
C  C47  1  0.92180000  0.26820000  0.66940000  1.0 -0.0325811693
C  C48  1  0.97910000  0.33770000  0.73200000  1.0 -0.1444940848
C  C49  1  0.08110000  0.42050000  0.72060000  1.0 0.1016029258
C  C50  1  0.11850000  0.43290000  0.64140000  1.0 -0.1697747654
C  C51  1  0.05890000  0.36210000  0.57810000  1.0 0.0027053457
C  C52  1  0.16280000  0.54440000  0.93150000  1.0 -0.0028411854
C  C53  1  0.11770000  0.47190000  0.87120000  1.0 -0.1492645525
C  C54  1  0.13880000  0.50000000  0.78570000  1.0 0.0905849131
C  C55  1  0.20710000  0.59990000  0.76300000  1.0 -0.1492645525
C  C56  1  0.25290000  0.67370000  0.82560000  1.0 0.0111627607
C  C57  1  0.80680000  0.98520000  0.50800000  1.0 0.0173462711
C  C58  1  0.87840000  0.97120000  0.53460000  1.0 -0.1697747654
C  C59  1  0.96190000  0.01030000  0.48670000  1.0 0.1016029258
C  C60  1  0.97190000  0.06730000  0.41800000  1.0 -0.1444940848
C  C61  1  0.89610000  0.08270000  0.38920000  1.0 0.0173462711
C  C62  1  0.94430000  0.31750000  0.29350000  1.0 0.0407167299
C  C63  1  0.98190000  0.35910000  0.12810000  1.0 0.0602274693
C  C64  1  0.12590000  0.54530000  0.17200000  1.0 0.0407167299
C  C65  1  0.17550000  0.41530000  0.13480000  1.0 -0.009371949
C  C66  1  0.25500000  0.51300000  0.27130000  1.0 0.0173462711
C  C67  1  0.09230000  0.48810000  0.33730000  1.0 0.0173462711
C  C68  1  0.12760000  0.34780000  0.35630000  1.0 -0.009371949
C  C69  1  0.03600000  0.25060000  0.22090000  1.0 -0.009371949
C  C70  1  0.26820000  0.92180000  0.83060000  1.0 -0.0325811693
C  C71  1  0.33770000  0.97910000  0.76800000  1.0 -0.1444940848
C  C72  1  0.42050000  0.08110000  0.77940000  1.0 0.1016029258
C  C73  1  0.43290000  0.11850000  0.85860000  1.0 -0.1697747654
C  C74  1  0.36210000  0.05890000  0.92190000  1.0 0.0027053457
C  C75  1  0.54440000  0.16280000  0.56850000  1.0 -0.0028411854
C  C76  1  0.47190000  0.11770000  0.62880000  1.0 -0.1492645525
C  C77  1  0.50000000  0.13880000  0.71430000  1.0 0.0905849131
C  C78  1  0.59990000  0.20710000  0.73700000  1.0 -0.1492645525
C  C79  1  0.67370000  0.25290000  0.67440000  1.0 0.0111627607
C  C80  1  0.98520000  0.80680000  0.99200000  1.0 0.0173462711
C  C81  1  0.97120000  0.87840000  0.96540000  1.0 -0.1697747654
C  C82  1  0.01030000  0.96190000  0.01330000  1.0 0.1016029258
C  C83  1  0.06730000  0.97190000  0.08200000  1.0 -0.1444940848
C  C84  1  0.08270000  0.89610000  0.11080000  1.0 0.0173462711
C  C85  1  0.31750000  0.94430000  0.20650000  1.0 0.0407167299
C  C86  1  0.35910000  0.98190000  0.37190000  1.0 0.0602274693
C  C87  1  0.54530000  0.12590000  0.32800000  1.0 0.0407167299
C  C88  1  0.41530000  0.17550000  0.36520000  1.0 -0.009371949
C  C89  1  0.51300000  0.25500000  0.22870000  1.0 0.0173462711
C  C90  1  0.48810000  0.09230000  0.16270000  1.0 0.0173462711
C  C91  1  0.34780000  0.12760000  0.14370000  1.0 -0.009371949
C  C92  1  0.25060000  0.03600000  0.27910000  1.0 -0.009371949
N  N1  1  0.03820000  0.71600000  0.40660000  1.0 0.3300322795
N  N2  1  0.77150000  0.35790000  0.09400000  1.0 0.3300322795
N  N3  1  0.17960000  0.95420000  0.55940000  1.0 0.3001898693
N  N4  1  0.13250000  0.73010000  0.67180000  1.0 -0.4614664151
N  N5  1  0.07460000  0.66920000  0.92940000  1.0 -0.4614664151
N  N6  1  0.85060000  0.37900000  0.86250000  1.0 -0.483374512
N  N7  1  0.78070000  0.57850000  0.91890000  1.0 -0.2991297079
N  N8  1  0.66050000  0.43290000  0.71200000  1.0 -0.1957863403
N  N9  1  0.91200000  0.47520000  0.60550000  1.0 -0.3180531359
N  N10  1  0.84750000  0.67830000  0.58320000  1.0 -0.3180531359
N  N11  1  0.99800000  0.83480000  0.78640000  1.0 -0.3280197514
N  N12  1  0.71600000  0.03820000  0.09340000  1.0 0.3300322795
N  N13  1  0.35790000  0.77150000  0.40600000  1.0 0.3300322795
N  N14  1  0.95420000  0.17960000  0.94060000  1.0 0.3001898693
N  N15  1  0.73010000  0.13250000  0.82820000  1.0 -0.4614664151
N  N16  1  0.66920000  0.07460000  0.57060000  1.0 -0.4656049145
N  N17  1  0.37900000  0.85060000  0.63750000  1.0 -0.483374512
N  N18  1  0.57850000  0.78070000  0.58110000  1.0 -0.2991297079
N  N19  1  0.43290000  0.66050000  0.78800000  1.0 -0.2089554054
N  N20  1  0.47520000  0.91200000  0.89450000  1.0 -0.3180531359
N  N21  1  0.67830000  0.84750000  0.91680000  1.0 -0.3180531359
N  N22  1  0.83480000  0.99800000  0.71360000  1.0 -0.3280197514
N  N23  1  0.96180000  0.28400000  0.59340000  1.0 0.3300322795
N  N24  1  0.22850000  0.64210000  0.90600000  1.0 0.3300322795
N  N25  1  0.82040000  0.04580000  0.44060000  1.0 0.3001898693
N  N26  1  0.86750000  0.26990000  0.32820000  1.0 -0.4614664151
N  N27  1  0.92540000  0.33080000  0.07060000  1.0 -0.4614664151
N  N28  1  0.14940000  0.62100000  0.13750000  1.0 -0.483374512
N  N29  1  0.21930000  0.42150000  0.08110000  1.0 -0.2991297079
N  N30  1  0.33950000  0.56710000  0.28800000  1.0 -0.2089554054
N  N31  1  0.08800000  0.52480000  0.39450000  1.0 -0.3180531359
N  N32  1  0.15250000  0.32170000  0.41680000  1.0 -0.3180531359
N  N33  1  0.00200000  0.16520000  0.21360000  1.0 -0.3280197514
N  N34  1  0.28400000  0.96180000  0.90660000  1.0 0.3300322795
N  N35  1  0.64210000  0.22850000  0.59400000  1.0 0.3300322795
N  N36  1  0.04580000  0.82040000  0.05940000  1.0 0.3001898693
N  N37  1  0.26990000  0.86750000  0.17180000  1.0 -0.4614664151
N  N38  1  0.33080000  0.92540000  0.42940000  1.0 -0.4656049145
N  N39  1  0.62100000  0.14940000  0.36250000  1.0 -0.483374512
N  N40  1  0.42150000  0.21930000  0.41890000  1.0 -0.2991297079
N  N41  1  0.56710000  0.33950000  0.21200000  1.0 -0.2089554054
N  N42  1  0.52480000  0.08800000  0.10550000  1.0 -0.3180531359
N  N43  1  0.32170000  0.15250000  0.08320000  1.0 -0.3180531359
N  N44  1  0.16520000  0.00200000  0.28640000  1.0 -0.3280197514
O  O1  1  0.09810000  0.77950000  0.46930000  1.0 -0.6383755637
O  O2  1  0.72935000  0.28925000  0.03620000  1.0 -0.5697363151
O  O3  1  0.24646000  0.93274000  0.58180000  1.0 -0.6463267935
O  O4  1  0.12090000  0.61930000  0.54390000  1.0 -0.78677745
O  O5  1  0.77950000  0.09810000  0.03070000  1.0 -0.6383755637
O  O6  1  0.28925000  0.72935000  0.46380000  1.0 -0.5697363151
O  O7  1  0.93274000  0.24646000  0.91820000  1.0 -0.6463267935
O  O8  1  0.61930000  0.12090000  0.95610000  1.0 -0.78677745
O  O9  1  0.90190000  0.22050000  0.53070000  1.0 -0.6383755637
O  O10  1  0.27065000  0.71075000  0.96380000  1.0 -0.5697363151
O  O11  1  0.75354000  0.06726000  0.41820000  1.0 -0.6463267935
O  O12  1  0.87910000  0.38070000  0.45610000  1.0 -0.78677745
O  O13  1  0.22050000  0.90190000  0.96930000  1.0 -0.6383755637
O  O14  1  0.71075000  0.27065000  0.53620000  1.0 -0.5697363151
O  O15  1  0.06726000  0.75354000  0.08180000  1.0 -0.6463267935
O  O16  1  0.38070000  0.87910000  0.04390000  1.0 -0.78677745
