# DDEC6 charges by PACMAN v1.1 (https://github.com/mtap-research/PACMAN-charge/)
data_ZEJXEU_FSR_pacman
_symmetry_space_group_name_H-M   'P 1'
_cell_length_a   16.46170000
_cell_length_b   16.46170000
_cell_length_c   15.92280000
_cell_angle_alpha   83.16290000
_cell_angle_beta   96.83710000
_cell_angle_gamma   126.06500000
_symmetry_Int_Tables_number   1
_chemical_formula_structural   DyH22WC24N11O7
_chemical_formula_sum   'Dy4 H88 W4 C96 N44 O28'
_cell_volume   3456.67797268
_cell_formula_units_Z   4
loop_
 _symmetry_equiv_pos_site_id
 _symmetry_equiv_pos_as_xyz
  1  'x, y, z'
loop_
 _atom_site_type_symbol
 _atom_site_label
 _atom_site_symmetry_multiplicity
 _atom_site_fract_x
 _atom_site_fract_y
 _atom_site_fract_z
 _atom_site_occupancy
 _atom_site_charge
Dy  Dy1  1  0.29285000  0.73639000  0.46068000  1.0 1.9241842262
Dy  Dy2  1  0.73639000  0.29285000  0.03932000  1.0 1.9241842262
Dy  Dy3  1  0.70715000  0.26361000  0.53932000  1.0 1.9241842262
Dy  Dy4  1  0.26361000  0.70715000  0.96068000  1.0 1.9241842262
H  H1  1  0.08080000  0.56900000  0.43710000  1.0 0.3596728898
H  H2  1  0.09260000  0.61660000  0.50720000  1.0 0.3486375294
H  H3  1  0.17770000  0.82770000  0.44920000  1.0 0.1801120571
H  H4  1  0.22600000  0.86140000  0.37700000  1.0 0.2398718528
H  H5  1  0.29040000  0.64480000  0.68570000  1.0 0.1402691609
H  H6  1  0.18080000  0.54960000  0.78920000  1.0 0.1497932456
H  H7  1  0.01960000  0.32220000  0.63460000  1.0 0.1402691609
H  H8  1  0.13130000  0.42270000  0.53240000  1.0 0.1402691609
H  H9  1  0.98130000  0.35350000  0.98970000  1.0 0.1333719126
H  H10  1  0.10190000  0.42750000  0.89290000  1.0 0.1497932456
H  H11  1  0.88870000  0.28030000  0.71030000  1.0 0.1402691609
H  H12  1  0.77160000  0.20320000  0.81090000  1.0 0.1402691609
H  H13  1  0.53590000  0.74290000  0.54690000  1.0 0.1402691609
H  H14  1  0.56750000  0.62710000  0.58570000  1.0 0.1570087901
H  H15  1  0.40130000  0.47910000  0.38470000  1.0 0.1497932456
H  H16  1  0.37430000  0.60090000  0.34780000  1.0 0.1333719126
H  H17  1  0.07670000  0.82470000  0.54120000  1.0 0.0948546163
H  H18  1  0.98100000  0.77360000  0.47890000  1.0 0.0990558972
H  H19  1  0.04100000  0.72620000  0.50040000  1.0 0.0845986388
H  H20  1  0.03250000  0.86570000  0.56830000  1.0 0.2909158996
H  H21  1  0.94620000  0.80060000  0.52140000  1.0 0.2185468047
H  H22  1  0.15820000  0.84840000  0.42930000  1.0 0.2056000202
H  H23  1  0.56900000  0.08080000  0.06290000  1.0 0.3596728898
H  H24  1  0.61660000  0.09260000  0.99280000  1.0 0.3486375294
H  H25  1  0.82770000  0.17770000  0.05080000  1.0 0.1801120571
H  H26  1  0.86140000  0.22600000  0.12300000  1.0 0.2398718528
H  H27  1  0.64480000  0.29040000  0.81430000  1.0 0.1402691609
H  H28  1  0.54960000  0.18080000  0.71080000  1.0 0.1497932456
H  H29  1  0.32220000  0.01960000  0.86540000  1.0 0.1402691609
H  H30  1  0.42270000  0.13130000  0.96760000  1.0 0.1402691609
H  H31  1  0.35350000  0.98130000  0.51030000  1.0 0.1333719126
H  H32  1  0.42750000  0.10190000  0.60710000  1.0 0.1497932456
H  H33  1  0.28030000  0.88870000  0.78970000  1.0 0.1402691609
H  H34  1  0.20320000  0.77160000  0.68910000  1.0 0.1402691609
H  H35  1  0.74290000  0.53590000  0.95310000  1.0 0.1402691609
H  H36  1  0.62710000  0.56750000  0.91430000  1.0 0.1570087901
H  H37  1  0.47910000  0.40130000  0.11530000  1.0 0.1497932456
H  H38  1  0.60090000  0.37430000  0.15220000  1.0 0.1333719126
H  H39  1  0.82470000  0.07670000  0.95880000  1.0 0.0948546163
H  H40  1  0.77360000  0.98100000  0.02110000  1.0 0.0990558972
H  H41  1  0.72620000  0.04100000  0.99960000  1.0 0.0845986388
H  H42  1  0.86570000  0.03250000  0.93170000  1.0 0.2909158996
H  H43  1  0.80060000  0.94620000  0.97860000  1.0 0.2185468047
H  H44  1  0.84840000  0.15820000  0.07070000  1.0 0.2056000202
H  H45  1  0.91920000  0.43100000  0.56290000  1.0 0.3596728898
H  H46  1  0.90740000  0.38340000  0.49280000  1.0 0.3486375294
H  H47  1  0.82230000  0.17230000  0.55080000  1.0 0.1801120571
H  H48  1  0.77400000  0.13860000  0.62300000  1.0 0.2398718528
H  H49  1  0.70960000  0.35520000  0.31430000  1.0 0.1402691609
H  H50  1  0.81920000  0.45040000  0.21080000  1.0 0.1497932456
H  H51  1  0.98040000  0.67780000  0.36540000  1.0 0.1402691609
H  H52  1  0.86870000  0.57730000  0.46760000  1.0 0.1402691609
H  H53  1  0.01870000  0.64650000  0.01030000  1.0 0.1333719126
H  H54  1  0.89810000  0.57250000  0.10710000  1.0 0.1497932456
H  H55  1  0.11130000  0.71970000  0.28970000  1.0 0.1402691609
H  H56  1  0.22840000  0.79680000  0.18910000  1.0 0.1402691609
H  H57  1  0.46410000  0.25710000  0.45310000  1.0 0.1402691609
H  H58  1  0.43250000  0.37290000  0.41430000  1.0 0.1570087901
H  H59  1  0.59870000  0.52090000  0.61530000  1.0 0.1497932456
H  H60  1  0.62570000  0.39910000  0.65220000  1.0 0.1333719126
H  H61  1  0.92330000  0.17530000  0.45880000  1.0 0.0948546163
H  H62  1  0.01900000  0.22640000  0.52110000  1.0 0.0990558972
H  H63  1  0.95900000  0.27380000  0.49960000  1.0 0.0845986388
H  H64  1  0.96750000  0.13430000  0.43170000  1.0 0.2909158996
H  H65  1  0.05380000  0.19940000  0.47860000  1.0 0.2185468047
H  H66  1  0.84180000  0.15160000  0.57070000  1.0 0.2056000202
H  H67  1  0.43100000  0.91920000  0.93710000  1.0 0.3596728898
H  H68  1  0.38340000  0.90740000  0.00720000  1.0 0.3486375294
H  H69  1  0.17230000  0.82230000  0.94920000  1.0 0.1801120571
H  H70  1  0.13860000  0.77400000  0.87700000  1.0 0.2398718528
H  H71  1  0.35520000  0.70960000  0.18570000  1.0 0.1402691609
H  H72  1  0.45040000  0.81920000  0.28920000  1.0 0.1497932456
H  H73  1  0.67780000  0.98040000  0.13460000  1.0 0.1402691609
H  H74  1  0.57730000  0.86870000  0.03240000  1.0 0.1402691609
H  H75  1  0.64650000  0.01870000  0.48970000  1.0 0.1333719126
H  H76  1  0.57250000  0.89810000  0.39290000  1.0 0.1497932456
H  H77  1  0.71970000  0.11130000  0.21030000  1.0 0.1402691609
H  H78  1  0.79680000  0.22840000  0.31090000  1.0 0.1402691609
H  H79  1  0.25710000  0.46410000  0.04690000  1.0 0.1402691609
H  H80  1  0.37290000  0.43250000  0.08570000  1.0 0.1570087901
H  H81  1  0.52090000  0.59870000  0.88470000  1.0 0.1497932456
H  H82  1  0.39910000  0.62570000  0.84780000  1.0 0.1333719126
H  H83  1  0.17530000  0.92330000  0.04120000  1.0 0.0990558972
H  H84  1  0.22640000  0.01900000  0.97890000  1.0 0.0990558972
H  H85  1  0.27380000  0.95900000  0.00040000  1.0 0.0845986388
H  H86  1  0.13430000  0.96750000  0.06830000  1.0 0.2909158996
H  H87  1  0.19940000  0.05380000  0.02140000  1.0 0.2185468047
H  H88  1  0.15160000  0.84180000  0.92930000  1.0 0.2056000202
W  W1  1  0.09821000  0.41825000  0.24209000  1.0 0.5190181664
W  W2  1  0.41825000  0.09821000  0.25791000  1.0 0.5190181664
W  W3  1  0.90179000  0.58175000  0.75791000  1.0 0.5190181664
W  W4  1  0.58175000  0.90179000  0.74209000  1.0 0.5190181664
C  C1  1  0.23440000  0.58040000  0.67520000  1.0 -0.0177125347
C  C2  1  0.16950000  0.52290000  0.73750000  1.0 -0.1414093778
C  C3  1  0.08600000  0.42420000  0.72450000  1.0 0.0990558972
C  C4  1  0.07310000  0.38750000  0.64550000  1.0 -0.1503540625
C  C5  1  0.13960000  0.44780000  0.58420000  1.0 -0.0305147493
C  C6  1  0.96330000  0.33910000  0.93320000  1.0 -0.0305147493
C  C7  1  0.03480000  0.38420000  0.87470000  1.0 -0.1331477332
C  C8  1  0.01010000  0.36730000  0.78870000  1.0 0.0948546163
C  C9  1  0.90900000  0.29660000  0.76630000  1.0 -0.1503540625
C  C10  1  0.83860000  0.25040000  0.82660000  1.0 0.0098545064
C  C11  1  0.50780000  0.68820000  0.51440000  1.0 0.0098545064
C  C12  1  0.52740000  0.61960000  0.53670000  1.0 -0.1683582452
C  C13  1  0.48980000  0.53720000  0.48900000  1.0 0.0990558972
C  C14  1  0.43040000  0.53260000  0.41880000  1.0 -0.1683582452
C  C15  1  0.41230000  0.60450000  0.39720000  1.0 0.0098545064
C  C16  1  0.18490000  0.56550000  0.29740000  1.0 0.0508606105
C  C17  1  0.14000000  0.52400000  0.13260000  1.0 0.0602967541
C  C18  1  0.95930000  0.38310000  0.17160000  1.0 0.0602967541
C  C19  1  0.08960000  0.33340000  0.14280000  1.0 0.0018070101
C  C20  1  0.99250000  0.25690000  0.27610000  1.0 0.0018070101
C  C21  1  0.01300000  0.41520000  0.33780000  1.0 0.0182930927
C  C22  1  0.15620000  0.38200000  0.35840000  1.0 0.0098545064
C  C23  1  0.25180000  0.47500000  0.22470000  1.0 0.0098545064
C  C24  1  0.04650000  0.78790000  0.49130000  1.0 -0.1331477332
C  C25  1  0.58040000  0.23440000  0.82480000  1.0 -0.0177125347
C  C26  1  0.52290000  0.16950000  0.76250000  1.0 -0.1414093778
C  C27  1  0.42420000  0.08600000  0.77550000  1.0 0.0990558972
C  C28  1  0.38750000  0.07310000  0.85450000  1.0 -0.1503540625
C  C29  1  0.44780000  0.13960000  0.91580000  1.0 -0.0305147493
C  C30  1  0.33910000  0.96330000  0.56680000  1.0 -0.0305147493
C  C31  1  0.38420000  0.03480000  0.62530000  1.0 -0.1331477332
C  C32  1  0.36730000  0.01010000  0.71130000  1.0 0.0948546163
C  C33  1  0.29660000  0.90900000  0.73370000  1.0 -0.1503540625
C  C34  1  0.25040000  0.83860000  0.67340000  1.0 0.0098545064
C  C35  1  0.68820000  0.50780000  0.98560000  1.0 0.0098545064
C  C36  1  0.61960000  0.52740000  0.96330000  1.0 -0.1683582452
C  C37  1  0.53720000  0.48980000  0.01100000  1.0 0.0990558972
C  C38  1  0.53260000  0.43040000  0.08120000  1.0 -0.1683582452
C  C39  1  0.60450000  0.41230000  0.10280000  1.0 0.0098545064
C  C40  1  0.56550000  0.18490000  0.20260000  1.0 0.0508606105
C  C41  1  0.52400000  0.14000000  0.36740000  1.0 0.0602967541
C  C42  1  0.38310000  0.95930000  0.32840000  1.0 0.0602967541
C  C43  1  0.33340000  0.08960000  0.35720000  1.0 0.0018070101
C  C44  1  0.25690000  0.99250000  0.22390000  1.0 0.0018070101
C  C45  1  0.41520000  0.01300000  0.16220000  1.0 0.0182930927
C  C46  1  0.38200000  0.15620000  0.14160000  1.0 0.0098545064
C  C47  1  0.47500000  0.25180000  0.27530000  1.0 0.0098545064
C  C48  1  0.78790000  0.04650000  0.00870000  1.0 -0.1331477332
C  C49  1  0.76560000  0.41960000  0.32480000  1.0 -0.0177125347
C  C50  1  0.83050000  0.47710000  0.26250000  1.0 -0.1414093778
C  C51  1  0.91400000  0.57580000  0.27550000  1.0 0.0990558972
C  C52  1  0.92690000  0.61250000  0.35450000  1.0 -0.1503540625
C  C53  1  0.86040000  0.55220000  0.41580000  1.0 -0.0305147493
C  C54  1  0.03670000  0.66090000  0.06680000  1.0 -0.0305147493
C  C55  1  0.96520000  0.61580000  0.12530000  1.0 -0.1331477332
C  C56  1  0.98990000  0.63270000  0.21130000  1.0 0.0948546163
C  C57  1  0.09100000  0.70340000  0.23370000  1.0 -0.1503540625
C  C58  1  0.16140000  0.74960000  0.17340000  1.0 0.0098545064
C  C59  1  0.49220000  0.31180000  0.48560000  1.0 0.0098545064
C  C60  1  0.47260000  0.38040000  0.46330000  1.0 -0.1683582452
C  C61  1  0.51020000  0.46280000  0.51100000  1.0 0.0990558972
C  C62  1  0.56960000  0.46740000  0.58120000  1.0 -0.1683582452
C  C63  1  0.58770000  0.39550000  0.60280000  1.0 0.0098545064
C  C64  1  0.81510000  0.43450000  0.70260000  1.0 0.0508606105
C  C65  1  0.86000000  0.47600000  0.86740000  1.0 0.0602967541
C  C66  1  0.04070000  0.61690000  0.82840000  1.0 0.0602967541
C  C67  1  0.91040000  0.66666667  0.85720000  1.0 0.0018070101
C  C68  1  0.00750000  0.74310000  0.72390000  1.0 0.0018070101
C  C69  1  0.98700000  0.58480000  0.66220000  1.0 0.0182930927
C  C70  1  0.84380000  0.61800000  0.64160000  1.0 0.0098545064
C  C71  1  0.74820000  0.52500000  0.77530000  1.0 0.0098545064
C  C72  1  0.95350000  0.21210000  0.50870000  1.0 -0.1331477332
C  C73  1  0.41960000  0.76560000  0.17520000  1.0 -0.0177125347
C  C74  1  0.47710000  0.83050000  0.23750000  1.0 -0.1414093778
C  C75  1  0.57580000  0.91400000  0.22450000  1.0 0.0990558972
C  C76  1  0.61250000  0.92690000  0.14550000  1.0 -0.1503540625
C  C77  1  0.55220000  0.86040000  0.08420000  1.0 -0.0305147493
C  C78  1  0.66090000  0.03670000  0.43320000  1.0 -0.0305147493
C  C79  1  0.61580000  0.96520000  0.37470000  1.0 -0.1331477332
C  C80  1  0.63270000  0.98990000  0.28870000  1.0 0.0948546163
C  C81  1  0.70340000  0.09100000  0.26630000  1.0 -0.1503540625
C  C82  1  0.74960000  0.16140000  0.32660000  1.0 0.0098545064
C  C83  1  0.31180000  0.49220000  0.01440000  1.0 0.0098545064
C  C84  1  0.38040000  0.47260000  0.03670000  1.0 -0.1683582452
C  C85  1  0.46280000  0.51020000  0.98900000  1.0 0.0990558972
C  C86  1  0.46740000  0.56960000  0.91880000  1.0 -0.1683582452
C  C87  1  0.39550000  0.58770000  0.89720000  1.0 0.0098545064
C  C88  1  0.43450000  0.81510000  0.79740000  1.0 0.0508606105
C  C89  1  0.47600000  0.86000000  0.63260000  1.0 0.0602967541
C  C90  1  0.61690000  0.04070000  0.67160000  1.0 0.0602967541
C  C91  1  0.66666667  0.91040000  0.64280000  1.0 0.0018070101
C  C92  1  0.74310000  0.00750000  0.77610000  1.0 0.0018070101
C  C93  1  0.58480000  0.98700000  0.83780000  1.0 0.0182930927
C  C94  1  0.61800000  0.84380000  0.85840000  1.0 0.0098545064
C  C95  1  0.52500000  0.74820000  0.72470000  1.0 0.0098545064
C  C96  1  0.21210000  0.95350000  0.99130000  1.0 -0.1331477332
N  N1  1  0.21810000  0.54510000  0.59920000  1.0 0.3337969414
N  N2  1  0.86600000  0.27280000  0.90680000  1.0 0.2185468047
N  N3  1  0.44890000  0.67830000  0.44660000  1.0 0.2909158996
N  N4  1  0.22830000  0.63750000  0.33100000  1.0 -0.4489617192
N  N5  1  0.16750000  0.57870000  0.07380000  1.0 -0.4670312771
N  N6  1  0.88570000  0.36090000  0.13410000  1.0 -0.5141270228
N  N7  1  0.08570000  0.28810000  0.09050000  1.0 -0.3497805403
N  N8  1  0.93920000  0.17320000  0.29230000  1.0 -0.3497805403
N  N9  1  0.97490000  0.41850000  0.39210000  1.0 -0.3497805403
N  N10  1  0.18400000  0.36020000  0.41980000  1.0 -0.3497805403
N  N11  1  0.33480000  0.50560000  0.21630000  1.0 -0.3351971277
N  N12  1  0.54510000  0.21810000  0.90080000  1.0 0.3337969414
N  N13  1  0.27280000  0.86600000  0.59320000  1.0 0.2185468047
N  N14  1  0.67830000  0.44890000  0.05340000  1.0 0.2909158996
N  N15  1  0.63750000  0.22830000  0.16900000  1.0 -0.4489617192
N  N16  1  0.57870000  0.16750000  0.42620000  1.0 -0.4670312771
N  N17  1  0.36090000  0.88570000  0.36590000  1.0 -0.5141270228
N  N18  1  0.28810000  0.08570000  0.40950000  1.0 -0.3497805403
N  N19  1  0.17320000  0.93920000  0.20770000  1.0 -0.3497805403
N  N20  1  0.41850000  0.97490000  0.10790000  1.0 -0.3497805403
N  N21  1  0.36020000  0.18400000  0.08020000  1.0 -0.3497805403
N  N22  1  0.50560000  0.33480000  0.28370000  1.0 -0.3351971277
N  N23  1  0.78190000  0.45490000  0.40080000  1.0 0.3337969414
N  N24  1  0.13400000  0.72720000  0.09320000  1.0 0.2185468047
N  N25  1  0.55110000  0.32170000  0.55340000  1.0 0.2909158996
N  N26  1  0.77170000  0.36250000  0.66900000  1.0 -0.4489617192
N  N27  1  0.83250000  0.42130000  0.92620000  1.0 -0.4670312771
N  N28  1  0.11430000  0.63910000  0.86590000  1.0 -0.5141270228
N  N29  1  0.91430000  0.71190000  0.90950000  1.0 -0.3497805403
N  N30  1  0.06080000  0.82680000  0.70770000  1.0 -0.3497805403
N  N31  1  0.02510000  0.58150000  0.60790000  1.0 -0.3497805403
N  N32  1  0.81600000  0.63980000  0.58020000  1.0 -0.3497805403
N  N33  1  0.66520000  0.49440000  0.78370000  1.0 -0.3351971277
N  N34  1  0.45490000  0.78190000  0.09920000  1.0 0.3337969414
N  N35  1  0.72720000  0.13400000  0.40680000  1.0 0.2185468047
N  N36  1  0.32170000  0.55110000  0.94660000  1.0 0.2909158996
N  N37  1  0.36250000  0.77170000  0.83100000  1.0 -0.4489617192
N  N38  1  0.42130000  0.83250000  0.57380000  1.0 -0.4670312771
N  N39  1  0.63910000  0.11430000  0.63410000  1.0 -0.5141270228
N  N40  1  0.71190000  0.91430000  0.59050000  1.0 -0.3497805403
N  N41  1  0.82680000  0.06080000  0.79230000  1.0 -0.3497805403
N  N42  1  0.58150000  0.02510000  0.89210000  1.0 -0.3497805403
N  N43  1  0.63980000  0.81600000  0.91980000  1.0 -0.3497805403
N  N44  1  0.49440000  0.66520000  0.71630000  1.0 -0.3351971277
O  O1  1  0.27880000  0.60340000  0.53790000  1.0 -0.5883798965
O  O2  1  0.79800000  0.22820000  0.96770000  1.0 -0.5489711233
O  O3  1  0.42850000  0.74610000  0.42670000  1.0 -0.6291750439
O  O4  1  0.11690000  0.62430000  0.46060000  1.0 -0.7974216112
O  O5  1  0.18450000  0.80810000  0.40550000  1.0 -0.3664505549
O  O6  1  0.10630000  0.84530000  0.42300000  1.0 -0.1331477332
O  O7  1  0.00160000  0.85820000  0.52010000  1.0 -0.3078692921
O  O8  1  0.60340000  0.27880000  0.96210000  1.0 -0.5883798965
O  O9  1  0.22820000  0.79800000  0.53230000  1.0 -0.5489711233
O  O10  1  0.74610000  0.42850000  0.07330000  1.0 -0.6291750439
O  O11  1  0.62430000  0.11690000  0.03940000  1.0 -0.7974216112
O  O12  1  0.80810000  0.18450000  0.09450000  1.0 -0.3664505549
O  O13  1  0.84530000  0.10630000  0.07700000  1.0 -0.1331477332
O  O14  1  0.85820000  0.00160000  0.97990000  1.0 -0.3078692921
O  O15  1  0.72120000  0.39660000  0.46210000  1.0 -0.5883798965
O  O16  1  0.20200000  0.77180000  0.03230000  1.0 -0.5489711233
O  O17  1  0.57150000  0.25390000  0.57330000  1.0 -0.6291750439
O  O18  1  0.88310000  0.37570000  0.53940000  1.0 -0.7974216112
O  O19  1  0.81550000  0.19190000  0.59450000  1.0 -0.3664505549
O  O20  1  0.89370000  0.15470000  0.57700000  1.0 -0.1331477332
O  O21  1  0.99840000  0.14180000  0.47990000  1.0 -0.3078692921
O  O22  1  0.39660000  0.72120000  0.03790000  1.0 -0.5883798965
O  O23  1  0.77180000  0.20200000  0.46770000  1.0 -0.5489711233
O  O24  1  0.25390000  0.57150000  0.92670000  1.0 -0.6291750439
O  O25  1  0.37570000  0.88310000  0.96060000  1.0 -0.7974216112
O  O26  1  0.19190000  0.81550000  0.90550000  1.0 -0.3664505549
O  O27  1  0.15470000  0.89370000  0.92300000  1.0 -0.1331477332
O  O28  1  0.14180000  0.99840000  0.02010000  1.0 -0.3078692921
