# DDEC6 charges by PACMAN v1.1 (https://github.com/mtap-research/PACMAN-charge/)
data_ZEJXAQ_ASR_pacman
_symmetry_space_group_name_H-M   'P 1'
_cell_length_a   16.70610000
_cell_length_b   16.70610000
_cell_length_c   15.76550000
_cell_angle_alpha   83.27310000
_cell_angle_beta   96.72690000
_cell_angle_gamma   127.61200000
_symmetry_Int_Tables_number   1
_chemical_formula_structural   HoH12WC23N11O3
_chemical_formula_sum   'Ho4 H48 W4 C92 N44 O12'
_cell_volume   3455.72682380
_cell_formula_units_Z   4
loop_
 _symmetry_equiv_pos_site_id
 _symmetry_equiv_pos_as_xyz
  1  'x, y, z'
loop_
 _atom_site_type_symbol
 _atom_site_label
 _atom_site_symmetry_multiplicity
 _atom_site_fract_x
 _atom_site_fract_y
 _atom_site_fract_z
 _atom_site_occupancy
 _atom_site_charge
Ho  Ho1  1  0.79656000  0.23110000  0.45873000  1.0 1.9283787086
Ho  Ho2  1  0.23110000  0.79656000  0.04127000  1.0 1.9283787086
Ho  Ho3  1  0.20344000  0.76890000  0.54127000  1.0 1.9283787086
Ho  Ho4  1  0.76890000  0.20344000  0.95873000  1.0 1.9283787086
H  H1  1  0.78830000  0.14410000  0.68240000  1.0 0.1498441058
H  H2  1  0.67530000  0.04830000  0.78810000  1.0 0.1418229763
H  H3  1  0.51258000  0.82078000  0.63480000  1.0 0.1498441058
H  H4  1  0.62520000  0.91740000  0.53200000  1.0 0.1498441058
H  H5  1  0.47340000  0.85740000  0.98950000  1.0 0.1498441058
H  H6  1  0.59590000  0.93510000  0.89100000  1.0 0.1498441058
H  H7  1  0.37930000  0.77370000  0.71110000  1.0 0.1498441058
H  H8  1  0.26260000  0.70020000  0.81060000  1.0 0.1498441058
H  H9  1  0.04090000  0.24490000  0.54140000  1.0 0.1418229763
H  H10  1  0.07350000  0.12890000  0.58120000  1.0 0.1578199751
H  H11  1  0.90110000  0.97310000  0.38260000  1.0 0.1498441058
H  H12  1  0.86660000  0.08900000  0.35150000  1.0 0.1418229763
H  H13  1  0.14410000  0.78830000  0.81760000  1.0 0.1498441058
H  H14  1  0.04830000  0.67530000  0.71190000  1.0 0.1418229763
H  H15  1  0.82078000  0.51258000  0.86520000  1.0 0.1498441058
H  H16  1  0.91740000  0.62520000  0.96800000  1.0 0.1498441058
H  H17  1  0.85740000  0.47340000  0.51050000  1.0 0.1498441058
H  H18  1  0.93510000  0.59590000  0.60900000  1.0 0.1498441058
H  H19  1  0.77370000  0.37930000  0.78890000  1.0 0.1498441058
H  H20  1  0.70020000  0.26260000  0.68940000  1.0 0.1498441058
H  H21  1  0.24490000  0.04090000  0.95860000  1.0 0.1418229763
H  H22  1  0.12890000  0.07350000  0.91880000  1.0 0.1578199751
H  H23  1  0.97310000  0.90110000  0.11740000  1.0 0.1498441058
H  H24  1  0.08900000  0.86660000  0.14850000  1.0 0.1418229763
H  H25  1  0.21170000  0.85590000  0.31760000  1.0 0.1498441058
H  H26  1  0.32470000  0.95170000  0.21190000  1.0 0.1418229763
H  H27  1  0.48742000  0.17922000  0.36520000  1.0 0.1498441058
H  H28  1  0.37480000  0.08260000  0.46800000  1.0 0.1498441058
H  H29  1  0.52660000  0.14260000  0.01050000  1.0 0.1498441058
H  H30  1  0.40410000  0.06490000  0.10900000  1.0 0.1498441058
H  H31  1  0.62070000  0.22630000  0.28890000  1.0 0.1498441058
H  H32  1  0.73740000  0.29980000  0.18940000  1.0 0.1498441058
H  H33  1  0.95910000  0.75510000  0.45860000  1.0 0.1418229763
H  H34  1  0.92650000  0.87110000  0.41880000  1.0 0.1578199751
H  H35  1  0.09890000  0.02690000  0.61740000  1.0 0.1498441058
H  H36  1  0.13340000  0.91100000  0.64850000  1.0 0.1418229763
H  H37  1  0.85590000  0.21170000  0.18240000  1.0 0.1498441058
H  H38  1  0.95170000  0.32470000  0.28810000  1.0 0.1418229763
H  H39  1  0.17922000  0.48742000  0.13480000  1.0 0.1498441058
H  H40  1  0.08260000  0.37480000  0.03200000  1.0 0.1498441058
H  H41  1  0.14260000  0.52660000  0.48950000  1.0 0.1498441058
H  H42  1  0.06490000  0.40410000  0.39100000  1.0 0.1498441058
H  H43  1  0.22630000  0.62070000  0.21110000  1.0 0.1498441058
H  H44  1  0.29980000  0.73740000  0.31060000  1.0 0.1498441058
H  H45  1  0.75510000  0.95910000  0.04140000  1.0 0.1418229763
H  H46  1  0.87110000  0.92650000  0.08120000  1.0 0.1578199751
H  H47  1  0.02690000  0.09890000  0.88260000  1.0 0.1498441058
H  H48  1  0.91100000  0.13340000  0.85150000  1.0 0.1418229763
W  W1  1  0.59256000  0.91280000  0.23986000  1.0 0.6196327879
W  W2  1  0.91280000  0.59256000  0.26014000  1.0 0.6196327879
W  W3  1  0.40744000  0.08720000  0.76014000  1.0 0.6196327879
W  W4  1  0.08720000  0.40744000  0.73986000  1.0 0.6196327879
C  C1  1  0.73180000  0.07980000  0.67270000  1.0 -0.0120250368
C  C2  1  0.66340000  0.02160000  0.73640000  1.0 -0.1504209291
C  C3  1  0.57700000  0.92340000  0.72240000  1.0 0.0931443273
C  C4  1  0.56640000  0.88620000  0.64520000  1.0 -0.1612704267
C  C5  1  0.63400000  0.94400000  0.58320000  1.0 0.0010151965
C  C6  1  0.45490000  0.84210000  0.93320000  1.0 0.0203724054
C  C7  1  0.52900000  0.88880000  0.87400000  1.0 -0.1504209291
C  C8  1  0.50110000  0.86490000  0.78820000  1.0 0.098987854
C  C9  1  0.39950000  0.79230000  0.76660000  1.0 -0.1504209291
C  C10  1  0.32950000  0.74850000  0.82610000  1.0 -0.0014294911
C  C11  1  0.01140000  0.18860000  0.51050000  1.0 0.0203724054
C  C12  1  0.03140000  0.12040000  0.53340000  1.0 -0.1612704267
C  C13  1  0.99100000  0.03860000  0.48760000  1.0 0.098987854
C  C14  1  0.92860000  0.02680000  0.41630000  1.0 -0.1372561381
C  C15  1  0.90950000  0.09590000  0.39800000  1.0 -0.0120250368
C  C16  1  0.68290000  0.06050000  0.29430000  1.0 0.0581526543
C  C17  1  0.63760000  0.01840000  0.12940000  1.0 0.0581526543
C  C18  1  0.45310000  0.87550000  0.17340000  1.0 0.052574335
C  C19  1  0.58000000  0.82800000  0.13950000  1.0 -0.0221556519
C  C20  1  0.48840000  0.75200000  0.27500000  1.0 0.0252833273
C  C21  1  0.51050000  0.91210000  0.33740000  1.0 -0.0120250368
C  C22  1  0.65190000  0.88210000  0.35630000  1.0 -0.0014294911
C  C23  1  0.74560000  0.96900000  0.22090000  1.0 -0.0120250368
C  C24  1  0.07980000  0.73180000  0.82730000  1.0 -0.0120250368
C  C25  1  0.02160000  0.66340000  0.76360000  1.0 -0.1504209291
C  C26  1  0.92340000  0.57700000  0.77760000  1.0 0.0931443273
C  C27  1  0.88620000  0.56640000  0.85480000  1.0 -0.1612704267
C  C28  1  0.94400000  0.63400000  0.91680000  1.0 0.0010151965
C  C29  1  0.84210000  0.45490000  0.56680000  1.0 0.0203724054
C  C30  1  0.88880000  0.52900000  0.62600000  1.0 -0.1504209291
C  C31  1  0.86490000  0.50110000  0.71180000  1.0 0.098987854
C  C32  1  0.79230000  0.39950000  0.73340000  1.0 -0.1504209291
C  C33  1  0.74850000  0.32950000  0.67390000  1.0 0.0010151965
C  C34  1  0.18860000  0.01140000  0.98950000  1.0 0.0203724054
C  C35  1  0.12040000  0.03140000  0.96660000  1.0 -0.1612704267
C  C36  1  0.03860000  0.99100000  0.01240000  1.0 0.098987854
C  C37  1  0.02680000  0.92860000  0.08370000  1.0 -0.1372561381
C  C38  1  0.09590000  0.90950000  0.10200000  1.0 -0.0120250368
C  C39  1  0.06050000  0.68290000  0.20570000  1.0 0.0581526543
C  C40  1  0.01840000  0.63760000  0.37060000  1.0 0.0581526543
C  C41  1  0.87550000  0.45310000  0.32660000  1.0 0.052574335
C  C42  1  0.82800000  0.58000000  0.36050000  1.0 -0.0221556519
C  C43  1  0.75200000  0.48840000  0.22500000  1.0 0.0252833273
C  C44  1  0.91210000  0.51050000  0.16260000  1.0 -0.0120250368
C  C45  1  0.88210000  0.65190000  0.14370000  1.0 -0.0014294911
C  C46  1  0.96900000  0.74560000  0.27910000  1.0 -0.0120250368
C  C47  1  0.26820000  0.92020000  0.32730000  1.0 -0.0120250368
C  C48  1  0.33660000  0.97840000  0.26360000  1.0 -0.1504209291
C  C49  1  0.42300000  0.07660000  0.27760000  1.0 0.0931443273
C  C50  1  0.43360000  0.11380000  0.35480000  1.0 -0.1612704267
C  C51  1  0.36600000  0.05600000  0.41680000  1.0 0.0010151965
C  C52  1  0.54510000  0.15790000  0.06680000  1.0 0.0203724054
C  C53  1  0.47100000  0.11120000  0.12600000  1.0 -0.1504209291
C  C54  1  0.49890000  0.13510000  0.21180000  1.0 0.098987854
C  C55  1  0.60050000  0.20770000  0.23340000  1.0 -0.1504209291
C  C56  1  0.67050000  0.25150000  0.17390000  1.0 0.0010151965
C  C57  1  0.98860000  0.81140000  0.48950000  1.0 0.0203724054
C  C58  1  0.96860000  0.87960000  0.46660000  1.0 -0.1612704267
C  C59  1  0.00900000  0.96140000  0.51240000  1.0 0.098987854
C  C60  1  0.07140000  0.97320000  0.58370000  1.0 -0.1372561381
C  C61  1  0.09050000  0.90410000  0.60200000  1.0 -0.0120250368
C  C62  1  0.31710000  0.93950000  0.70570000  1.0 0.052574335
C  C63  1  0.36240000  0.98160000  0.87060000  1.0 0.0581526543
C  C64  1  0.54690000  0.12450000  0.82660000  1.0 0.052574335
C  C65  1  0.42000000  0.17200000  0.86050000  1.0 -0.0221556519
C  C66  1  0.51160000  0.24800000  0.72500000  1.0 0.0203724054
C  C67  1  0.48950000  0.08790000  0.66260000  1.0 -0.0120250368
C  C68  1  0.34810000  0.11790000  0.64370000  1.0 -0.0014294911
C  C69  1  0.25440000  0.03100000  0.77910000  1.0 -0.0120250368
C  C70  1  0.92020000  0.26820000  0.17270000  1.0 -0.0120250368
C  C71  1  0.97840000  0.33660000  0.23640000  1.0 -0.1504209291
C  C72  1  0.07660000  0.42300000  0.22240000  1.0 0.0931443273
C  C73  1  0.11380000  0.43360000  0.14520000  1.0 -0.1612704267
C  C74  1  0.05600000  0.36600000  0.08320000  1.0 0.0010151965
C  C75  1  0.15790000  0.54510000  0.43320000  1.0 0.0203724054
C  C76  1  0.11120000  0.47100000  0.37400000  1.0 -0.1504209291
C  C77  1  0.13510000  0.49890000  0.28820000  1.0 0.098987854
C  C78  1  0.20770000  0.60050000  0.26660000  1.0 -0.1504209291
C  C79  1  0.25150000  0.67050000  0.32610000  1.0 -0.0014294911
C  C80  1  0.81140000  0.98860000  0.01050000  1.0 0.0203724054
C  C81  1  0.87960000  0.96860000  0.03340000  1.0 -0.1612704267
C  C82  1  0.96140000  0.00900000  0.98760000  1.0 0.098987854
C  C83  1  0.97320000  0.07140000  0.91630000  1.0 -0.1372561381
C  C84  1  0.90410000  0.09050000  0.89800000  1.0 -0.0120250368
C  C85  1  0.93950000  0.31710000  0.79430000  1.0 0.0581526543
C  C86  1  0.98160000  0.36240000  0.62940000  1.0 0.0581526543
C  C87  1  0.12450000  0.54690000  0.67340000  1.0 0.052574335
C  C88  1  0.17200000  0.42000000  0.63950000  1.0 -0.0252765474
C  C89  1  0.24800000  0.51160000  0.77500000  1.0 0.0252833273
C  C90  1  0.08790000  0.48950000  0.83740000  1.0 -0.0221556519
C  C91  1  0.11790000  0.34810000  0.85630000  1.0 -0.0014294911
C  C92  1  0.03100000  0.25440000  0.72090000  1.0 -0.0120250368
N  N1  1  0.71380000  0.04060000  0.59790000  1.0 0.3156449869
N  N2  1  0.35760000  0.77540000  0.90910000  1.0 0.3385539129
N  N3  1  0.95080000  0.17560000  0.44520000  1.0 0.3011687621
N  N4  1  0.72880000  0.13400000  0.32860000  1.0 -0.4774875604
N  N5  1  0.66666667  0.07360000  0.06890000  1.0 -0.4774875604
N  N6  1  0.37870000  0.85370000  0.13700000  1.0 -0.4967669846
N  N7  1  0.57310000  0.78350000  0.08390000  1.0 -0.320991469
N  N8  1  0.43890000  0.66770000  0.29290000  1.0 -0.1994380827
N  N9  1  0.47380000  0.91420000  0.39360000  1.0 -0.320991469
N  N10  1  0.68100000  0.86300000  0.42000000  1.0 -0.320991469
N  N11  1  0.82920000  0.00260000  0.21300000  1.0 -0.3294632063
N  N12  1  0.04060000  0.71380000  0.90210000  1.0 0.3156449869
N  N13  1  0.77540000  0.35760000  0.59090000  1.0 0.3385539129
N  N14  1  0.17560000  0.95080000  0.05480000  1.0 0.3011687621
N  N15  1  0.13400000  0.72880000  0.17140000  1.0 -0.4774875604
N  N16  1  0.07360000  0.66666667  0.43110000  1.0 -0.4774875604
N  N17  1  0.85370000  0.37870000  0.36300000  1.0 -0.4967669846
N  N18  1  0.78350000  0.57310000  0.41610000  1.0 -0.320991469
N  N19  1  0.66770000  0.43890000  0.20710000  1.0 -0.1994380827
N  N20  1  0.91420000  0.47380000  0.10640000  1.0 -0.320991469
N  N21  1  0.86300000  0.68100000  0.08000000  1.0 -0.320991469
N  N22  1  0.00260000  0.82920000  0.28700000  1.0 -0.3294632063
N  N23  1  0.28620000  0.95940000  0.40210000  1.0 0.3156449869
N  N24  1  0.64240000  0.22460000  0.09090000  1.0 0.3385539129
N  N25  1  0.04920000  0.82440000  0.55480000  1.0 0.3011687621
N  N26  1  0.27120000  0.86600000  0.67140000  1.0 -0.4774875604
N  N27  1  0.33340000  0.92640000  0.93110000  1.0 -0.4774875604
N  N28  1  0.62130000  0.14630000  0.86300000  1.0 -0.4967669846
N  N29  1  0.42690000  0.21650000  0.91610000  1.0 -0.320991469
N  N30  1  0.56110000  0.33230000  0.70710000  1.0 -0.1994380827
N  N31  1  0.52620000  0.08580000  0.60640000  1.0 -0.320991469
N  N32  1  0.31900000  0.13700000  0.58000000  1.0 -0.320991469
N  N33  1  0.17080000  0.99740000  0.78700000  1.0 -0.3294632063
N  N34  1  0.95940000  0.28620000  0.09790000  1.0 0.3156449869
N  N35  1  0.22460000  0.64240000  0.40910000  1.0 0.3385539129
N  N36  1  0.82440000  0.04920000  0.94520000  1.0 0.3011687621
N  N37  1  0.86600000  0.27120000  0.82860000  1.0 -0.4774875604
N  N38  1  0.92640000  0.33340000  0.56890000  1.0 -0.4774875604
N  N39  1  0.14630000  0.62130000  0.63700000  1.0 -0.4967669846
N  N40  1  0.21650000  0.42690000  0.58390000  1.0 -0.320991469
N  N41  1  0.33230000  0.56110000  0.79290000  1.0 -0.1931954101
N  N42  1  0.08580000  0.52620000  0.89360000  1.0 -0.320991469
N  N43  1  0.13700000  0.31900000  0.92000000  1.0 -0.320991469
N  N44  1  0.99740000  0.17080000  0.71300000  1.0 -0.3294632063
O  O1  1  0.77840000  0.09880000  0.53570000  1.0 -0.6539479222
O  O2  1  0.28650000  0.73270000  0.96510000  1.0 -0.6083832905
O  O3  1  0.93050000  0.24130000  0.42480000  1.0 -0.6188404784
O  O4  1  0.09880000  0.77840000  0.96430000  1.0 -0.6553386972
O  O5  1  0.73270000  0.28650000  0.53490000  1.0 -0.6083832905
O  O6  1  0.24130000  0.93050000  0.07520000  1.0 -0.6188404784
O  O7  1  0.22160000  0.90120000  0.46430000  1.0 -0.6539479222
O  O8  1  0.71350000  0.26730000  0.03490000  1.0 -0.6083832905
O  O9  1  0.06950000  0.75870000  0.57520000  1.0 -0.6188404784
O  O10  1  0.90120000  0.22160000  0.03570000  1.0 -0.6539479222
O  O11  1  0.26730000  0.71350000  0.46510000  1.0 -0.6083832905
O  O12  1  0.75870000  0.06950000  0.92480000  1.0 -0.6188404784
