# DDEC6 charges by PACMAN v1.1 (https://github.com/mtap-research/PACMAN-charge/)
data_ZEKDUS_FSR_pacman
_symmetry_space_group_name_H-M   'P 1'
_cell_length_a   12.58590000
_cell_length_b   12.58590000
_cell_length_c   11.62220000
_cell_angle_alpha   67.19290000
_cell_angle_beta   112.80700000
_cell_angle_gamma   94.49620000
_symmetry_Int_Tables_number   1
_chemical_formula_structural   TiCuH26C28(NF)10
_chemical_formula_sum   'Ti2 Cu2 H52 C56 N20 F20'
_cell_volume   1558.78500814
_cell_formula_units_Z   2
loop_
 _symmetry_equiv_pos_site_id
 _symmetry_equiv_pos_as_xyz
  1  'x, y, z'
loop_
 _atom_site_type_symbol
 _atom_site_label
 _atom_site_symmetry_multiplicity
 _atom_site_fract_x
 _atom_site_fract_y
 _atom_site_fract_z
 _atom_site_occupancy
 _atom_site_charge
Ti  Ti1  1  0.17534000  0.17534000  0.75000000  1.0 1.5837129977
Ti  Ti2  1  0.82466000  0.82466000  0.25000000  1.0 1.5837129977
Cu  Cu1  1  0.00000000  0.50000000  0.50000000  1.0 0.4192459758
Cu  Cu2  1  0.50000000  0.00000000  0.00000000  1.0 0.4192459758
H  H1  1  0.15347000  0.35097000  0.46220000  1.0 0.0901479277
H  H2  1  0.79242000  0.56740000  0.21973000  1.0 0.1075103492
H  H3  1  0.98949000  0.65313000  0.18882000  1.0 0.1075103492
H  H4  1  0.08611000  0.57897000  0.08360000  1.0 0.1075103492
H  H5  1  0.15693000  0.42653000  0.05372000  1.0 0.11801182
H  H6  1  0.30813000  0.27823000  0.46045000  1.0 0.1075103492
H  H7  1  0.40810000  0.68668000  0.89881000  1.0 0.1023219254
H  H8  1  0.56706000  0.62892000  0.10754000  1.0 0.0901479277
H  H9  1  0.65045000  0.28209000  0.37258000  1.0 0.0800136171
H  H10  1  0.83578000  0.29236000  0.54938000  1.0 0.0901479277
H  H11  1  0.77547000  0.57683000  0.22779000  1.0 0.1075103492
H  H12  1  0.87613000  0.25917000  0.52436000  1.0 0.0800136171
H  H13  1  0.69362000  0.24420000  0.35236000  1.0 0.0800136171
H  H14  1  0.35097000  0.15347000  0.03780000  1.0 0.0901479277
H  H15  1  0.56740000  0.79242000  0.28027000  1.0 0.1075103492
H  H16  1  0.65313000  0.98949000  0.31118000  1.0 0.1075103492
H  H17  1  0.57897000  0.08611000  0.41640000  1.0 0.1075103492
H  H18  1  0.42653000  0.15693000  0.44628000  1.0 0.11801182
H  H19  1  0.27823000  0.30813000  0.03955000  1.0 0.1075103492
H  H20  1  0.68668000  0.40810000  0.60119000  1.0 0.1023219254
H  H21  1  0.62892000  0.56706000  0.39246000  1.0 0.0901479277
H  H22  1  0.28209000  0.65045000  0.12742000  1.0 0.0901479277
H  H23  1  0.29236000  0.83578000  0.95062000  1.0 0.0901479277
H  H24  1  0.57683000  0.77547000  0.27221000  1.0 0.1075103492
H  H25  1  0.25917000  0.87613000  0.97564000  1.0 0.0800136171
H  H26  1  0.24420000  0.69362000  0.14764000  1.0 0.0800136171
H  H27  1  0.84653000  0.64903000  0.53780000  1.0 0.0901479277
H  H28  1  0.20758000  0.43260000  0.78027000  1.0 0.1075103492
H  H29  1  0.01051000  0.34687000  0.81118000  1.0 0.1075103492
H  H30  1  0.91389000  0.42103000  0.91640000  1.0 0.1075103492
H  H31  1  0.84307000  0.57347000  0.94628000  1.0 0.11801182
H  H32  1  0.69187000  0.72177000  0.53955000  1.0 0.1075103492
H  H33  1  0.59190000  0.31332000  0.10119000  1.0 0.1023219254
H  H34  1  0.43294000  0.37108000  0.89246000  1.0 0.0901479277
H  H35  1  0.34955000  0.71791000  0.62742000  1.0 0.0800136171
H  H36  1  0.16422000  0.70764000  0.45062000  1.0 0.0901479277
H  H37  1  0.22453000  0.42317000  0.77221000  1.0 0.1075103492
H  H38  1  0.12387000  0.74083000  0.47564000  1.0 0.0800136171
H  H39  1  0.30638000  0.75580000  0.64764000  1.0 0.0800136171
H  H40  1  0.64903000  0.84653000  0.96220000  1.0 0.0901479277
H  H41  1  0.43260000  0.20758000  0.71973000  1.0 0.1075103492
H  H42  1  0.34687000  0.01051000  0.68882000  1.0 0.1075103492
H  H43  1  0.42103000  0.91389000  0.58360000  1.0 0.1075103492
H  H44  1  0.57347000  0.84307000  0.55372000  1.0 0.11801182
H  H45  1  0.72177000  0.69187000  0.96045000  1.0 0.1075103492
H  H46  1  0.31332000  0.59190000  0.39881000  1.0 0.1023219254
H  H47  1  0.37108000  0.43294000  0.60754000  1.0 0.0901479277
H  H48  1  0.71791000  0.34955000  0.87258000  1.0 0.0800136171
H  H49  1  0.70764000  0.16422000  0.04938000  1.0 0.0901479277
H  H50  1  0.42317000  0.22453000  0.72779000  1.0 0.1075103492
H  H51  1  0.74083000  0.12387000  0.02436000  1.0 0.0800136171
H  H52  1  0.75580000  0.30638000  0.85236000  1.0 0.0800136171
C  C1  1  0.12482000  0.41802000  0.38080000  1.0 0.0269084208
C  C2  1  0.77957000  0.49677000  0.28130000  1.0 -0.0395027075
C  C3  1  0.03562000  0.58182000  0.23130000  1.0 -0.0904439754
C  C4  1  0.22039000  0.36319000  0.25990000  1.0 0.1557546917
C  C5  1  0.08874000  0.54214000  0.17320000  1.0 -0.1605814669
C  C6  1  0.21210000  0.37170000  0.13400000  1.0 -0.1765279147
C  C7  1  0.30110000  0.28370000  0.37390000  1.0 -0.1681295383
C  C8  1  0.59310000  0.46710000  0.12140000  1.0 0.1257386197
C  C9  1  0.44550000  0.61090000  0.94020000  1.0 -0.2984988253
C  C10  1  0.53970000  0.57670000  0.06350000  1.0 -0.3268376488
C  C11  1  0.70050000  0.34270000  0.36330000  1.0 -0.0302220918
C  C12  1  0.80400000  0.34720000  0.45850000  1.0 -0.0214770037
C  C13  1  0.83070000  0.32110000  0.44360000  1.0 -0.0302220918
C  C14  1  0.73460000  0.31140000  0.34790000  1.0 -0.0556389439
C  C15  1  0.41802000  0.12482000  0.11920000  1.0 0.0269084208
C  C16  1  0.49677000  0.77957000  0.21870000  1.0 -0.0395027075
C  C17  1  0.58182000  0.03562000  0.26870000  1.0 -0.0904439754
C  C18  1  0.36319000  0.22039000  0.24010000  1.0 0.1557546917
C  C19  1  0.54214000  0.08874000  0.32680000  1.0 -0.1605814669
C  C20  1  0.37170000  0.21210000  0.36600000  1.0 -0.1765279147
C  C21  1  0.28370000  0.30110000  0.12610000  1.0 -0.1681295383
C  C22  1  0.46710000  0.59310000  0.37860000  1.0 0.1257386197
C  C23  1  0.61090000  0.44550000  0.55980000  1.0 -0.2984988253
C  C24  1  0.57670000  0.53970000  0.43650000  1.0 -0.3268376488
C  C25  1  0.34270000  0.70050000  0.13670000  1.0 -0.0302220918
C  C26  1  0.34720000  0.80400000  0.04150000  1.0 -0.0214770037
C  C27  1  0.32110000  0.83070000  0.05640000  1.0 -0.0302220918
C  C28  1  0.31140000  0.73460000  0.15210000  1.0 -0.0556389439
C  C29  1  0.87518000  0.58198000  0.61920000  1.0 0.0269084208
C  C30  1  0.22043000  0.50323000  0.71870000  1.0 -0.0395027075
C  C31  1  0.96438000  0.41818000  0.76870000  1.0 -0.0904439754
C  C32  1  0.77961000  0.63681000  0.74010000  1.0 0.1557546917
C  C33  1  0.91126000  0.45786000  0.82680000  1.0 -0.1605814669
C  C34  1  0.78790000  0.62830000  0.86600000  1.0 -0.1765279147
C  C35  1  0.69890000  0.71630000  0.62610000  1.0 -0.1681295383
C  C36  1  0.40690000  0.53290000  0.87860000  1.0 0.1257386197
C  C37  1  0.55450000  0.38910000  0.05980000  1.0 -0.2984988253
C  C38  1  0.46030000  0.42330000  0.93650000  1.0 -0.3268376488
C  C39  1  0.29950000  0.65730000  0.63670000  1.0 -0.0302220918
C  C40  1  0.19600000  0.65280000  0.54150000  1.0 -0.0214770037
C  C41  1  0.16930000  0.67890000  0.55640000  1.0 -0.0302220918
C  C42  1  0.26540000  0.68860000  0.65210000  1.0 -0.0556389439
C  C43  1  0.58198000  0.87518000  0.88080000  1.0 0.0269084208
C  C44  1  0.50323000  0.22043000  0.78130000  1.0 -0.0395027075
C  C45  1  0.41818000  0.96438000  0.73130000  1.0 -0.0904439754
C  C46  1  0.63681000  0.77961000  0.75990000  1.0 0.1557546917
C  C47  1  0.45786000  0.91126000  0.67320000  1.0 -0.1605814669
C  C48  1  0.62830000  0.78790000  0.63400000  1.0 -0.1765279147
C  C49  1  0.71630000  0.69890000  0.87390000  1.0 -0.1681295383
C  C50  1  0.53290000  0.40690000  0.62140000  1.0 0.1257386197
C  C51  1  0.38910000  0.55450000  0.44020000  1.0 -0.2984988253
C  C52  1  0.42330000  0.46030000  0.56350000  1.0 -0.3268376488
C  C53  1  0.65730000  0.29950000  0.86330000  1.0 -0.0302220918
C  C54  1  0.65280000  0.19600000  0.95850000  1.0 -0.0214770037
C  C55  1  0.67890000  0.16930000  0.94360000  1.0 -0.0302220918
C  C56  1  0.68860000  0.26540000  0.84790000  1.0 -0.0556389439
N  N1  1  0.05828000  0.50348000  0.36130000  1.0 -0.2984988253
N  N2  1  0.85496000  0.44112000  0.40520000  1.0 -0.2081611652
N  N3  1  0.14741000  0.43787000  0.26940000  1.0 -0.0068421552
N  N4  1  0.68250000  0.44270000  0.25140000  1.0 0.1420799408
N  N5  1  0.70580000  0.41560000  0.24230000  1.0 0.1420799408
N  N6  1  0.50348000  0.05828000  0.13870000  1.0 -0.2984988253
N  N7  1  0.44112000  0.85496000  0.09480000  1.0 -0.2081611652
N  N8  1  0.43787000  0.14741000  0.23060000  1.0 -0.0068421552
N  N9  1  0.44270000  0.68250000  0.24860000  1.0 0.1420799408
N  N10  1  0.41560000  0.70580000  0.25770000  1.0 0.1420799408
N  N11  1  0.94172000  0.49652000  0.63870000  1.0 -0.2984988253
N  N12  1  0.14504000  0.55888000  0.59480000  1.0 -0.2081611652
N  N13  1  0.85259000  0.56213000  0.73060000  1.0 -0.0068421552
N  N14  1  0.31750000  0.55730000  0.74860000  1.0 0.1420799408
N  N15  1  0.29420000  0.58440000  0.75770000  1.0 0.1420799408
N  N16  1  0.49652000  0.94172000  0.86130000  1.0 -0.2984988253
N  N17  1  0.55888000  0.14504000  0.90520000  1.0 -0.2081611652
N  N18  1  0.56213000  0.85259000  0.76940000  1.0 -0.0068421552
N  N19  1  0.55730000  0.31750000  0.75140000  1.0 0.1420799408
N  N20  1  0.58440000  0.29420000  0.74230000  1.0 0.1420799408
F  F1  1  0.06554000  0.29836000  0.63150000  1.0 -0.5667178157
F  F2  1  0.28990000  0.27030000  0.80880000  1.0 -0.1034425675
F  F3  1  0.06340000  0.08400000  0.70420000  1.0 -0.1681295383
F  F4  1  0.13180000  0.16920000  0.89110000  1.0 -0.1125277161
F  F5  1  0.18530000  0.22630000  0.87900000  1.0 -0.0025428131
F  F6  1  0.29836000  0.06554000  0.86850000  1.0 -0.5667178157
F  F7  1  0.27030000  0.28990000  0.69120000  1.0 -0.1034425675
F  F8  1  0.08400000  0.06340000  0.79580000  1.0 -0.1681295383
F  F9  1  0.16920000  0.13180000  0.60890000  1.0 -0.1125277161
F  F10  1  0.22630000  0.18530000  0.62100000  1.0 -0.0025428131
F  F11  1  0.93446000  0.70164000  0.36850000  1.0 -0.5667178157
F  F12  1  0.71010000  0.72970000  0.19120000  1.0 -0.1034425675
F  F13  1  0.93660000  0.91600000  0.29580000  1.0 -0.1681295383
F  F14  1  0.86820000  0.83080000  0.10890000  1.0 -0.1125277161
F  F15  1  0.81470000  0.77370000  0.12100000  1.0 -0.0025428131
F  F16  1  0.70164000  0.93446000  0.13150000  1.0 -0.5667178157
F  F17  1  0.72970000  0.71010000  0.30880000  1.0 -0.1034425675
F  F18  1  0.91600000  0.93660000  0.20420000  1.0 -0.1681295383
F  F19  1  0.83080000  0.86820000  0.39110000  1.0 -0.1125277161
F  F20  1  0.77370000  0.81470000  0.37900000  1.0 -0.0025428131
