# DDEC6 charges by PACMAN v1.1 (https://github.com/mtap-research/PACMAN-charge/)
data_ZEKNOV_FSR_pacman
_symmetry_space_group_name_H-M   'P 1'
_cell_length_a   13.09860000
_cell_length_b   13.09860000
_cell_length_c   15.50800000
_cell_angle_alpha   62.56600000
_cell_angle_beta   117.43400000
_cell_angle_gamma   154.27900000
_symmetry_Int_Tables_number   1
_chemical_formula_structural   ZnH12C16(NO)4
_chemical_formula_sum   'Zn2 H24 C32 N8 O8'
_cell_volume   1017.65833225
_cell_formula_units_Z   2
loop_
 _symmetry_equiv_pos_site_id
 _symmetry_equiv_pos_as_xyz
  1  'x, y, z'
loop_
 _atom_site_type_symbol
 _atom_site_label
 _atom_site_symmetry_multiplicity
 _atom_site_fract_x
 _atom_site_fract_y
 _atom_site_fract_z
 _atom_site_occupancy
 _atom_site_charge
Zn  Zn1  1  0.86002000  0.86002000  0.75000000  1.0 0.7423210482
Zn  Zn2  1  0.13998000  0.13998000  0.25000000  1.0 0.7423210482
H  H1  1  0.67780000  0.60680000  0.48040000  1.0 0.1306684355
H  H2  1  0.80810000  0.00350000  0.54600000  1.0 0.1116178206
H  H3  1  0.96720000  0.31820000  0.45140000  1.0 0.1417741964
H  H4  1  0.23360000  0.34420000  0.77480000  1.0 0.1116178206
H  H5  1  0.25470000  0.72530000  0.43190000  1.0 0.1116178206
H  H6  1  0.41270000  0.67310000  0.68640000  1.0 0.1417741964
H  H7  1  0.60680000  0.67780000  0.01960000  1.0 0.1306684355
H  H8  1  0.00350000  0.80810000  0.95400000  1.0 0.1116178206
H  H9  1  0.31820000  0.96720000  0.04860000  1.0 0.1417741964
H  H10  1  0.34420000  0.23360000  0.72520000  1.0 0.1116178206
H  H11  1  0.72530000  0.25470000  0.06810000  1.0 0.1116178206
H  H12  1  0.67310000  0.41270000  0.81360000  1.0 0.1417741964
H  H13  1  0.32220000  0.39320000  0.51960000  1.0 0.1306684355
H  H14  1  0.19190000  0.99650000  0.45400000  1.0 0.1116178206
H  H15  1  0.03280000  0.68180000  0.54860000  1.0 0.1417741964
H  H16  1  0.76640000  0.65580000  0.22520000  1.0 0.1116178206
H  H17  1  0.74530000  0.27470000  0.56810000  1.0 0.1116178206
H  H18  1  0.58730000  0.32690000  0.31360000  1.0 0.1417741964
H  H19  1  0.39320000  0.32220000  0.98040000  1.0 0.1306684355
H  H20  1  0.99650000  0.19190000  0.04600000  1.0 0.1116178206
H  H21  1  0.68180000  0.03280000  0.95140000  1.0 0.1417741964
H  H22  1  0.65580000  0.76640000  0.27480000  1.0 0.1116178206
H  H23  1  0.27470000  0.74530000  0.93190000  1.0 0.1116178206
H  H24  1  0.32690000  0.58730000  0.18640000  1.0 0.1417741964
C  C1  1  0.60914000  0.57666000  0.51520000  1.0 -0.1815966626
C  C2  1  0.92964000  0.13916000  0.57460000  1.0 0.1027366727
C  C3  1  0.75480000  0.70580000  0.60150000  1.0 0.5822640995
C  C4  1  0.21062000  0.53458000  0.55880000  1.0 0.1116178206
C  C5  1  0.02520000  0.32780000  0.51720000  1.0 -0.1815966626
C  C6  1  0.18080000  0.34040000  0.70860000  1.0 0.1027366727
C  C7  1  0.30790000  0.73270000  0.49830000  1.0 0.0243441437
C  C8  1  0.28876000  0.53864000  0.65620000  1.0 -0.1594401297
C  C9  1  0.57666000  0.60914000  0.98480000  1.0 -0.1815966626
C  C10  1  0.13916000  0.92964000  0.92540000  1.0 0.1027366727
C  C11  1  0.70580000  0.75480000  0.89850000  1.0 0.5822640995
C  C12  1  0.53458000  0.21062000  0.94120000  1.0 0.1116178206
C  C13  1  0.32780000  0.02520000  0.98280000  1.0 -0.1815966626
C  C14  1  0.34040000  0.18080000  0.79140000  1.0 0.1027366727
C  C15  1  0.73270000  0.30790000  0.00170000  1.0 0.0243441437
C  C16  1  0.53864000  0.28876000  0.84380000  1.0 -0.1594401297
C  C17  1  0.39086000  0.42334000  0.48480000  1.0 -0.1815966626
C  C18  1  0.07036000  0.86084000  0.42540000  1.0 0.1027366727
C  C19  1  0.24520000  0.29420000  0.39850000  1.0 0.5822640995
C  C20  1  0.78938000  0.46542000  0.44120000  1.0 0.1116178206
C  C21  1  0.97480000  0.67220000  0.48280000  1.0 -0.1815966626
C  C22  1  0.81920000  0.65960000  0.29140000  1.0 0.1027366727
C  C23  1  0.69210000  0.26730000  0.50170000  1.0 0.0243441437
C  C24  1  0.71124000  0.46136000  0.34380000  1.0 -0.1594401297
C  C25  1  0.42334000  0.39086000  0.01520000  1.0 -0.1815966626
C  C26  1  0.86084000  0.07036000  0.07460000  1.0 0.1027366727
C  C27  1  0.29420000  0.24520000  0.10150000  1.0 0.5822640995
C  C28  1  0.46542000  0.78938000  0.05880000  1.0 0.1116178206
C  C29  1  0.67220000  0.97480000  0.01720000  1.0 -0.1815966626
C  C30  1  0.65960000  0.81920000  0.20860000  1.0 0.1027366727
C  C31  1  0.26730000  0.69210000  0.99830000  1.0 0.0243441437
C  C32  1  0.46136000  0.71124000  0.15620000  1.0 -0.1594401297
N  N1  1  0.00408000  0.14292000  0.66910000  1.0 -0.2345624079
N  N2  1  0.46563000  0.91557000  0.53680000  1.0 -0.1959271987
N  N3  1  0.14292000  0.00408000  0.83090000  1.0 -0.2345624079
N  N4  1  0.91557000  0.46563000  0.96320000  1.0 -0.1959271987
N  N5  1  0.99592000  0.85708000  0.33090000  1.0 -0.2345624079
N  N6  1  0.53437000  0.08443000  0.46320000  1.0 -0.1959271987
N  N7  1  0.85708000  0.99592000  0.16910000  1.0 -0.2345624079
N  N8  1  0.08443000  0.53437000  0.03680000  1.0 -0.1959271987
O  O1  1  0.65719000  0.66241000  0.64769000  1.0 -0.5586847623
O  O2  1  0.95500000  0.84560000  0.62350000  1.0 -0.5321223994
O  O3  1  0.66241000  0.65719000  0.85231000  1.0 -0.5586847623
O  O4  1  0.84560000  0.95500000  0.87650000  1.0 -0.5321223994
O  O5  1  0.34281000  0.33759000  0.35231000  1.0 -0.5586847623
O  O6  1  0.04500000  0.15440000  0.37650000  1.0 -0.5321223994
O  O7  1  0.33759000  0.34281000  0.14769000  1.0 -0.5586847623
O  O8  1  0.15440000  0.04500000  0.12350000  1.0 -0.5321223994
