# DDEC6 charges by PACMAN v1.1 (https://github.com/mtap-research/PACMAN-charge/)
data_ZEQGEL_FSR_pacman
_symmetry_space_group_name_H-M   'P 1'
_cell_length_a   16.43880000
_cell_length_b   16.43880000
_cell_length_c   18.25010000
_cell_angle_alpha   70.37470000
_cell_angle_beta   109.62500000
_cell_angle_gamma   79.94060000
_symmetry_Int_Tables_number   1
_chemical_formula_structural   Ca3H67C73O15
_chemical_formula_sum   'Ca6 H134 C146 O30'
_cell_volume   4139.40196322
_cell_formula_units_Z   2
loop_
 _symmetry_equiv_pos_site_id
 _symmetry_equiv_pos_as_xyz
  1  'x, y, z'
loop_
 _atom_site_type_symbol
 _atom_site_label
 _atom_site_symmetry_multiplicity
 _atom_site_fract_x
 _atom_site_fract_y
 _atom_site_fract_z
 _atom_site_occupancy
 _atom_site_charge
Ca  Ca1  1  0.12688000  0.37744000  0.57956000  1.0 1.2768102306
Ca  Ca2  1  0.89708000  0.52150000  0.53878000  1.0 1.3927357811
Ca  Ca3  1  0.37744000  0.12688000  0.42044000  1.0 1.2768102306
Ca  Ca4  1  0.52150000  0.89708000  0.46122000  1.0 1.3927357811
Ca  Ca5  1  0.74942000  0.74942000  0.50000000  1.0 1.290728392
Ca  Ca6  1  0.29223000  0.29223000  0.50000000  1.0 1.3460970539
H  H1  1  0.77939000  0.50967000  0.63084000  1.0 0.4012336749
H  H2  1  0.77669000  0.43043000  0.59773000  1.0 0.3757190424
H  H3  1  0.86863000  0.85585000  0.32196000  1.0 0.137760293
H  H4  1  0.90874000  0.70116000  0.40448000  1.0 0.1310684997
H  H5  1  0.14912000  0.66262000  0.39013000  1.0 0.1220302753
H  H6  1  0.10815000  0.81727000  0.30780000  1.0 0.1220302753
H  H7  1  0.07185000  0.98953000  0.42051000  1.0 0.1310684997
H  H8  1  0.98598000  0.96438000  0.42677000  1.0 0.1475804317
H  H9  1  0.06022000  0.89716000  0.41972000  1.0 0.1310684997
H  H10  1  0.08538000  0.16900000  0.28330000  1.0 0.1310684997
H  H11  1  0.13440000  0.24842000  0.36330000  1.0 0.1310684997
H  H12  1  0.92362000  0.24508000  0.42794000  1.0 0.1220302753
H  H13  1  0.87765000  0.16381000  0.35076000  1.0 0.1220302753
H  H14  1  0.81961000  0.26671000  0.06831000  1.0 0.137760293
H  H15  1  0.84306000  0.27278000  0.15657000  1.0 0.1310684997
H  H16  1  0.91630000  0.26944000  0.11954000  1.0 0.137760293
H  H17  1  0.87030000  0.97764000  0.05776000  1.0 0.137760293
H  H18  1  0.95537000  0.89621000  0.13318000  1.0 0.1310684997
H  H19  1  0.85851000  0.90633000  0.13256000  1.0 0.137760293
H  H20  1  0.62975000  0.13521000  0.99711000  1.0 0.1310684997
H  H21  1  0.72003000  0.06343000  0.07489000  1.0 0.137760293
H  H22  1  0.68662000  0.16226000  0.06783000  1.0 0.137760293
H  H23  1  0.60181000  0.13145000  0.80528000  1.0 0.1310684997
H  H24  1  0.44681000  0.17847000  0.72040000  1.0 0.1220302753
H  H25  1  0.40887000  0.38389000  0.78923000  1.0 0.1310684997
H  H26  1  0.56274000  0.33698000  0.87341000  1.0 0.1310684997
H  H27  1  0.74430000  0.31274000  0.73253000  1.0 0.1310684997
H  H28  1  0.69465000  0.24063000  0.72548000  1.0 0.137760293
H  H29  1  0.64835000  0.32641000  0.73443000  1.0 0.1310684997
H  H30  1  0.89685000  0.35403000  0.84857000  1.0 0.1220302753
H  H31  1  0.97372000  0.39824000  0.76548000  1.0 0.1220302753
H  H32  1  0.01274000  0.15902000  0.74879000  1.0 0.1220302753
H  H33  1  0.92816000  0.11892000  0.82622000  1.0 0.1310684997
H  H34  1  0.00534000  0.19734000  0.01107000  1.0 0.137760293
H  H35  1  0.00721000  0.11891000  0.09028000  1.0 0.1310684997
H  H36  1  0.02225000  0.09793000  0.01724000  1.0 0.1310684997
H  H37  1  0.18667000  0.72389000  0.77925000  1.0 0.1310684997
H  H38  1  0.03119000  0.76789000  0.69822000  1.0 0.1220302753
H  H39  1  0.06460000  0.53300000  0.67234000  1.0 0.1220302753
H  H40  1  0.22051000  0.48955000  0.75242000  1.0 0.1310684997
H  H41  1  0.36934000  0.65676000  0.65353000  1.0 0.1220302753
H  H42  1  0.29719000  0.60567000  0.65301000  1.0 0.1475804317
H  H43  1  0.27970000  0.69964000  0.65889000  1.0 0.1310684997
H  H44  1  0.55075000  0.48189000  0.74671000  1.0 0.1220302753
H  H45  1  0.63211000  0.52891000  0.66609000  1.0 0.1220302753
H  H46  1  0.58716000  0.76570000  0.68541000  1.0 0.1220302753
H  H47  1  0.51044000  0.71748000  0.76858000  1.0 0.1310684997
H  H48  1  0.63357000  0.45217000  0.00977000  1.0 0.137760293
H  H49  1  0.64050000  0.46562000  0.92312000  1.0 0.1310684997
H  H50  1  0.63167000  0.54717000  0.94938000  1.0 0.137760293
H  H51  1  0.34204000  0.45278000  0.01044000  1.0 0.137760293
H  H52  1  0.29503000  0.55755000  0.97807000  1.0 0.137760293
H  H53  1  0.25187000  0.50563000  0.92549000  1.0 0.137760293
H  H54  1  0.90729000  0.37209000  0.48529000  1.0 0.3501835335
H  H55  1  0.21690000  0.49164000  0.42953000  1.0 0.3501835335
H  H56  1  0.73764000  0.41874000  0.47113000  1.0 0.0641284044
H  H57  1  0.77249000  0.36887000  0.42283000  1.0 0.0641284044
H  H58  1  0.75647000  0.26523000  0.53485000  1.0 0.1310684997
H  H59  1  0.82479000  0.28983000  0.60098000  1.0 0.1089346278
H  H60  1  0.85979000  0.23975000  0.55249000  1.0 0.1310684997
H  H61  1  0.32428000  0.46890000  0.45282000  1.0 0.1089346278
H  H62  1  0.80101000  0.41663000  0.46063000  1.0 0.1002301517
H  H63  1  0.43235000  0.54597000  0.52155000  1.0 0.1220302753
H  H64  1  0.41734000  0.46310000  0.58323000  1.0 0.1220302753
H  H65  1  0.34157000  0.55911000  0.53345000  1.0 0.1220302753
H  H66  1  0.39358000  0.45416000  0.45229000  1.0 0.0406953208
H  H67  1  0.31836000  0.54946000  0.40287000  1.0 0.0667077917
H  H68  1  0.50967000  0.77939000  0.36916000  1.0 0.4012336749
H  H69  1  0.43043000  0.77669000  0.40227000  1.0 0.3757190424
H  H70  1  0.85585000  0.86863000  0.67804000  1.0 0.137760293
H  H71  1  0.70116000  0.90874000  0.59552000  1.0 0.1310684997
H  H72  1  0.66262000  0.14912000  0.60987000  1.0 0.1220302753
H  H73  1  0.81727000  0.10815000  0.69220000  1.0 0.1220302753
H  H74  1  0.98953000  0.07185000  0.57949000  1.0 0.1310684997
H  H75  1  0.96438000  0.98598000  0.57323000  1.0 0.1475804317
H  H76  1  0.89716000  0.06022000  0.58029000  1.0 0.1310684997
H  H77  1  0.16900000  0.08538000  0.71670000  1.0 0.1310684997
H  H78  1  0.24842000  0.13440000  0.63670000  1.0 0.1310684997
H  H79  1  0.24508000  0.92362000  0.57206000  1.0 0.1220302753
H  H80  1  0.16381000  0.87765000  0.64924000  1.0 0.1220302753
H  H81  1  0.26671000  0.81961000  0.93169000  1.0 0.137760293
H  H82  1  0.27278000  0.84306000  0.84343000  1.0 0.1310684997
H  H83  1  0.26944000  0.91630000  0.88046000  1.0 0.137760293
H  H84  1  0.97764000  0.87030000  0.94224000  1.0 0.137760293
H  H85  1  0.89621000  0.95537000  0.86682000  1.0 0.1310684997
H  H86  1  0.90633000  0.85851000  0.86744000  1.0 0.137760293
H  H87  1  0.13521000  0.62975000  0.00289000  1.0 0.1310684997
H  H88  1  0.06343000  0.72003000  0.92511000  1.0 0.137760293
H  H89  1  0.16226000  0.68662000  0.93217000  1.0 0.137760293
H  H90  1  0.13145000  0.60181000  0.19472000  1.0 0.1310684997
H  H91  1  0.17847000  0.44681000  0.27960000  1.0 0.1220302753
H  H92  1  0.38389000  0.40887000  0.21077000  1.0 0.1310684997
H  H93  1  0.33698000  0.56274000  0.12659000  1.0 0.1310684997
H  H94  1  0.31274000  0.74430000  0.26747000  1.0 0.1310684997
H  H95  1  0.24063000  0.69465000  0.27452000  1.0 0.137760293
H  H96  1  0.32641000  0.64835000  0.26557000  1.0 0.1310684997
H  H97  1  0.35403000  0.89685000  0.15143000  1.0 0.1220302753
H  H98  1  0.39824000  0.97372000  0.23452000  1.0 0.1220302753
H  H99  1  0.15902000  0.01274000  0.25121000  1.0 0.1220302753
H  H100  1  0.11892000  0.92816000  0.17378000  1.0 0.1310684997
H  H101  1  0.19734000  0.00534000  0.98893000  1.0 0.137760293
H  H102  1  0.11891000  0.00721000  0.90972000  1.0 0.1310684997
H  H103  1  0.09793000  0.02225000  0.98276000  1.0 0.1310684997
H  H104  1  0.72389000  0.18667000  0.22075000  1.0 0.1310684997
H  H105  1  0.76789000  0.03119000  0.30178000  1.0 0.1220302753
H  H106  1  0.53300000  0.06460000  0.32766000  1.0 0.1220302753
H  H107  1  0.48955000  0.22051000  0.24758000  1.0 0.1310684997
H  H108  1  0.65676000  0.36934000  0.34647000  1.0 0.1220302753
H  H109  1  0.60567000  0.29719000  0.34699000  1.0 0.1475804317
H  H110  1  0.69964000  0.27970000  0.34111000  1.0 0.1310684997
H  H111  1  0.48189000  0.55075000  0.25329000  1.0 0.1220302753
H  H112  1  0.52891000  0.63211000  0.33391000  1.0 0.1220302753
H  H113  1  0.76570000  0.58716000  0.31459000  1.0 0.1220302753
H  H114  1  0.71748000  0.51044000  0.23142000  1.0 0.1310684997
H  H115  1  0.45217000  0.63357000  0.99023000  1.0 0.137760293
H  H116  1  0.46562000  0.64050000  0.07688000  1.0 0.1310684997
H  H117  1  0.54717000  0.63167000  0.05062000  1.0 0.137760293
H  H118  1  0.45278000  0.34204000  0.98956000  1.0 0.137760293
H  H119  1  0.55755000  0.29503000  0.02193000  1.0 0.137760293
H  H120  1  0.50563000  0.25187000  0.07451000  1.0 0.137760293
H  H121  1  0.37209000  0.90729000  0.51471000  1.0 0.3501835335
H  H122  1  0.49164000  0.21690000  0.57047000  1.0 0.3501835335
H  H123  1  0.41874000  0.73764000  0.52887000  1.0 0.0641284044
H  H124  1  0.36887000  0.77249000  0.57717000  1.0 0.0641284044
H  H125  1  0.26523000  0.75647000  0.46515000  1.0 0.1310684997
H  H126  1  0.28983000  0.82479000  0.39902000  1.0 0.1089346278
H  H127  1  0.23975000  0.85979000  0.44751000  1.0 0.1310684997
H  H128  1  0.46890000  0.32428000  0.54718000  1.0 0.1089346278
H  H129  1  0.41663000  0.80101000  0.53937000  1.0 0.1002301517
H  H130  1  0.54597000  0.43235000  0.47845000  1.0 0.1220302753
H  H131  1  0.46310000  0.41734000  0.41677000  1.0 0.1220302753
H  H132  1  0.55911000  0.34157000  0.46655000  1.0 0.1220302753
H  H133  1  0.45416000  0.39358000  0.54771000  1.0 0.0406953208
H  H134  1  0.54946000  0.31836000  0.59713000  1.0 0.0667077917
C  C1  1  0.98377000  0.85337000  0.30670000  1.0 0.0893507725
C  C2  1  0.92540000  0.81720000  0.33580000  1.0 -0.1175661466
C  C3  1  0.94940000  0.72420000  0.38550000  1.0 -0.093004454
C  C4  1  0.03374000  0.66554000  0.40670000  1.0 -0.0484792543
C  C5  1  0.09260000  0.70120000  0.37690000  1.0 -0.1175661466
C  C6  1  0.06790000  0.79430000  0.32740000  1.0 -0.1477015588
C  C7  1  0.95813000  0.95473000  0.25810000  1.0 -0.0715725354
C  C8  1  0.97768000  0.00688000  0.30470000  1.0 0.0893507725
C  C9  1  0.94988000  0.10248000  0.25990000  1.0 -0.07608283
C  C10  1  0.90146000  0.14466000  0.17090000  1.0 0.0817437547
C  C11  1  0.88481000  0.09201000  0.12490000  1.0 -0.0416297501
C  C12  1  0.91436000  0.99696000  0.16810000  1.0 0.0817437547
C  C13  1  0.06110000  0.56650000  0.46250000  1.0 0.5894533235
C  C14  1  0.02860000  0.96020000  0.40180000  1.0 -0.4565075419
C  C15  1  0.97687000  0.15787000  0.30910000  1.0 0.0893507725
C  C16  1  0.05330000  0.18390000  0.31290000  1.0 -0.1287619378
C  C17  1  0.08240000  0.23200000  0.36030000  1.0 -0.093004454
C  C18  1  0.03325000  0.25565000  0.40380000  1.0 -0.0484792543
C  C19  1  0.95660000  0.22960000  0.39920000  1.0 -0.1096727316
C  C20  1  0.92900000  0.18120000  0.35290000  1.0 -0.1477015588
C  C21  1  0.86700000  0.24780000  0.12460000  1.0 -0.4409380885
C  C22  1  0.83770000  0.13890000  0.02820000  1.0 -0.0416297501
C  C23  1  0.74349000  0.15729000  0.98580000  1.0 0.0817437547
C  C24  1  0.70016000  0.20496000  0.89460000  1.0 -0.07608283
C  C25  1  0.75140000  0.22940000  0.84860000  1.0 0.0893507725
C  C26  1  0.84591000  0.20731000  0.89250000  1.0 -0.0715725354
C  C27  1  0.88934000  0.16314000  0.98280000  1.0 0.0817437547
C  C28  1  0.89810000  0.93890000  0.11830000  1.0 -0.4409380885
C  C29  1  0.06506000  0.30626000  0.45620000  1.0 0.5894533235
C  C30  1  0.69020000  0.12680000  0.03590000  1.0 -0.4492982438
C  C31  1  0.59980000  0.23020000  0.84670000  1.0 0.0893507725
C  C32  1  0.56340000  0.18300000  0.80150000  1.0 -0.1477015588
C  C33  1  0.47020000  0.21120000  0.75030000  1.0 -0.1096727316
C  C34  1  0.41194000  0.28854000  0.74370000  1.0 -0.0416297501
C  C35  1  0.44753000  0.33373000  0.79130000  1.0 -0.0995024524
C  C36  1  0.53985000  0.30545000  0.84190000  1.0 -0.1477015588
C  C37  1  0.70540000  0.28220000  0.75130000  1.0 -0.4672029149
C  C38  1  0.90180000  0.23300000  0.84380000  1.0 0.0893507725
C  C39  1  0.91810000  0.31550000  0.82690000  1.0 -0.1477015588
C  C40  1  0.96540000  0.34140000  0.77810000  1.0 -0.1096727316
C  C41  1  0.00070000  0.28370000  0.74790000  1.0 -0.0416297501
C  C42  1  0.98790000  0.19930000  0.76720000  1.0 -0.0995024524
C  C43  1  0.93760000  0.17520000  0.81440000  1.0 -0.1477015588
C  C44  1  0.99010000  0.14250000  0.02950000  1.0 -0.4492982438
C  C45  1  0.31202000  0.32182000  0.68350000  1.0 0.5821788329
C  C46  1  0.04864000  0.31464000  0.69180000  1.0 0.5894533235
C  C47  1  0.21910000  0.60250000  0.77240000  1.0 0.0893507725
C  C48  1  0.16200000  0.68600000  0.75700000  1.0 -0.1477015588
C  C49  1  0.06900000  0.71220000  0.70860000  1.0 -0.1096727316
C  C50  1  0.03125000  0.65545000  0.67540000  1.0 -0.0484792543
C  C51  1  0.08900000  0.57200000  0.69310000  1.0 -0.0995024524
C  C52  1  0.18270000  0.54550000  0.74130000  1.0 -0.1287619378
C  C53  1  0.32113000  0.57593000  0.81940000  1.0 -0.0715725354
C  C54  1  0.37280000  0.59460000  0.77240000  1.0 0.0817437547
C  C55  1  0.46780000  0.56840000  0.81560000  1.0 -0.07608283
C  C56  1  0.51190000  0.52270000  0.90580000  1.0 0.0817437547
C  C57  1  0.45915000  0.50535000  0.95130000  1.0 -0.0416297501
C  C58  1  0.36390000  0.53090000  0.90920000  1.0 0.0817437547
C  C59  1  0.93180000  0.68460000  0.61980000  1.0 0.5894533235
C  C60  1  0.32540000  0.64360000  0.67570000  1.0 -0.4672029149
C  C61  1  0.52180000  0.59500000  0.76570000  1.0 0.0893507725
C  C62  1  0.55820000  0.53900000  0.73490000  1.0 -0.1477015588
C  C63  1  0.60670000  0.56770000  0.68550000  1.0 -0.1096727316
C  C64  1  0.61630000  0.65230000  0.66620000  1.0 -0.0484792543
C  C65  1  0.58020000  0.70840000  0.69760000  1.0 -0.1175661466
C  C66  1  0.53380000  0.67940000  0.74740000  1.0 -0.1477015588
C  C67  1  0.61340000  0.49440000  0.95110000  1.0 -0.4409380885
C  C68  1  0.30800000  0.50980000  0.96050000  1.0 -0.4492982438
C  C69  1  0.66220000  0.68540000  0.60940000  1.0 0.5894533235
C  C70  1  0.79010000  0.37570000  0.47620000  1.0 -0.0211603083
C  C71  1  0.80960000  0.28420000  0.54770000  1.0 -0.4672029149
C  C72  1  0.38800000  0.51760000  0.53040000  1.0 -0.4492982438
C  C73  1  0.34420000  0.49320000  0.45500000  1.0 -0.0106608241
C  C74  1  0.85337000  0.98377000  0.69330000  1.0 0.0893507725
C  C75  1  0.81720000  0.92540000  0.66420000  1.0 -0.1175661466
C  C76  1  0.72420000  0.94940000  0.61450000  1.0 -0.093004454
C  C77  1  0.66554000  0.03374000  0.59330000  1.0 -0.0484792543
C  C78  1  0.70120000  0.09260000  0.62310000  1.0 -0.1175661466
C  C79  1  0.79430000  0.06790000  0.67260000  1.0 -0.1477015588
C  C80  1  0.95473000  0.95813000  0.74190000  1.0 -0.0715725354
C  C81  1  0.00688000  0.97768000  0.69530000  1.0 0.0893507725
C  C82  1  0.10248000  0.94988000  0.74010000  1.0 -0.07608283
C  C83  1  0.14466000  0.90146000  0.82910000  1.0 0.0817437547
C  C84  1  0.09201000  0.88481000  0.87510000  1.0 -0.0484792543
C  C85  1  0.99696000  0.91436000  0.83190000  1.0 0.0817437547
C  C86  1  0.56650000  0.06110000  0.53750000  1.0 0.5894533235
C  C87  1  0.96020000  0.02860000  0.59820000  1.0 -0.4565075419
C  C88  1  0.15787000  0.97687000  0.69090000  1.0 0.0893507725
C  C89  1  0.18390000  0.05330000  0.68710000  1.0 -0.1287619378
C  C90  1  0.23200000  0.08240000  0.63970000  1.0 -0.093004454
C  C91  1  0.25565000  0.03325000  0.59620000  1.0 -0.0484792543
C  C92  1  0.22960000  0.95660000  0.60080000  1.0 -0.1096727316
C  C93  1  0.18120000  0.92900000  0.64710000  1.0 -0.1477015588
C  C94  1  0.24780000  0.86700000  0.87540000  1.0 -0.4409380885
C  C95  1  0.13890000  0.83770000  0.97180000  1.0 -0.0416297501
C  C96  1  0.15729000  0.74349000  0.01420000  1.0 0.0817437547
C  C97  1  0.20496000  0.70016000  0.10540000  1.0 -0.07608283
C  C98  1  0.22940000  0.75140000  0.15140000  1.0 0.0893507725
C  C99  1  0.20731000  0.84591000  0.10750000  1.0 -0.0715725354
C  C100  1  0.16314000  0.88934000  0.01720000  1.0 0.0817437547
C  C101  1  0.93890000  0.89810000  0.88170000  1.0 -0.4409380885
C  C102  1  0.30626000  0.06506000  0.54380000  1.0 0.5894533235
C  C103  1  0.12680000  0.69020000  0.96410000  1.0 -0.4492982438
C  C104  1  0.23020000  0.59980000  0.15330000  1.0 0.0893507725
C  C105  1  0.18300000  0.56340000  0.19850000  1.0 -0.1477015588
C  C106  1  0.21120000  0.47020000  0.24970000  1.0 -0.1096727316
C  C107  1  0.28854000  0.41194000  0.25630000  1.0 -0.0416297501
C  C108  1  0.33373000  0.44753000  0.20870000  1.0 -0.0995024524
C  C109  1  0.30545000  0.53985000  0.15810000  1.0 -0.1477015588
C  C110  1  0.28220000  0.70540000  0.24870000  1.0 -0.4672029149
C  C111  1  0.23300000  0.90180000  0.15620000  1.0 0.0893507725
C  C112  1  0.31550000  0.91810000  0.17310000  1.0 -0.1477015588
C  C113  1  0.34140000  0.96540000  0.22190000  1.0 -0.1096727316
C  C114  1  0.28370000  0.00070000  0.25210000  1.0 -0.0416297501
C  C115  1  0.19930000  0.98790000  0.23280000  1.0 -0.0995024524
C  C116  1  0.17520000  0.93760000  0.18560000  1.0 -0.1477015588
C  C117  1  0.14250000  0.99010000  0.97050000  1.0 -0.4492982438
C  C118  1  0.32182000  0.31202000  0.31650000  1.0 0.5821788329
C  C119  1  0.31464000  0.04864000  0.30820000  1.0 0.5894533235
C  C120  1  0.60250000  0.21910000  0.22760000  1.0 0.0893507725
C  C121  1  0.68600000  0.16200000  0.24300000  1.0 -0.1477015588
C  C122  1  0.71220000  0.06900000  0.29140000  1.0 -0.1096727316
C  C123  1  0.65545000  0.03125000  0.32460000  1.0 -0.0484792543
C  C124  1  0.57200000  0.08900000  0.30690000  1.0 -0.0995024524
C  C125  1  0.54550000  0.18270000  0.25870000  1.0 -0.1287619378
C  C126  1  0.57593000  0.32113000  0.18060000  1.0 -0.0715725354
C  C127  1  0.59460000  0.37280000  0.22760000  1.0 0.0817437547
C  C128  1  0.56840000  0.46780000  0.18440000  1.0 -0.07608283
C  C129  1  0.52270000  0.51190000  0.09420000  1.0 0.0817437547
C  C130  1  0.50535000  0.45915000  0.04870000  1.0 -0.0416297501
C  C131  1  0.53090000  0.36390000  0.09080000  1.0 0.0817437547
C  C132  1  0.68460000  0.93180000  0.38020000  1.0 0.5894533235
C  C133  1  0.64360000  0.32540000  0.32430000  1.0 -0.4672029149
C  C134  1  0.59500000  0.52180000  0.23430000  1.0 0.0893507725
C  C135  1  0.53900000  0.55820000  0.26510000  1.0 -0.1477015588
C  C136  1  0.56770000  0.60670000  0.31450000  1.0 -0.1096727316
C  C137  1  0.65230000  0.61630000  0.33380000  1.0 -0.0484792543
C  C138  1  0.70840000  0.58020000  0.30240000  1.0 -0.1175661466
C  C139  1  0.67940000  0.53380000  0.25260000  1.0 -0.1477015588
C  C140  1  0.49440000  0.61340000  0.04890000  1.0 -0.4409380885
C  C141  1  0.50980000  0.30800000  0.03950000  1.0 -0.4492982438
C  C142  1  0.68540000  0.66220000  0.39060000  1.0 0.5894533235
C  C143  1  0.37570000  0.79010000  0.52380000  1.0 -0.0211603083
C  C144  1  0.28420000  0.80960000  0.45230000  1.0 -0.4672029149
C  C145  1  0.51760000  0.38800000  0.46960000  1.0 -0.4565075419
C  C146  1  0.49320000  0.34420000  0.54500000  1.0 -0.0106608241
O  O1  1  0.79751000  0.47851000  0.60190000  1.0 -0.8121442181
O  O2  1  0.00647000  0.53475000  0.48777000  1.0 -0.6625025652
O  O3  1  0.14035000  0.51481000  0.48550000  1.0 -0.5955581647
O  O4  1  0.13983000  0.32079000  0.46804000  1.0 -0.6625025652
O  O5  1  0.01662000  0.33214000  0.48990000  1.0 -0.5895782691
O  O6  1  0.25733000  0.37665000  0.69190000  1.0 -0.572663216
O  O7  1  0.10814000  0.25792000  0.68980000  1.0 -0.572663216
O  O8  1  0.28737000  0.29389000  0.62526000  1.0 -0.682212947
O  O9  1  0.02507000  0.40015000  0.64657000  1.0 -0.6900179964
O  O10  1  0.87854000  0.75686000  0.60820000  1.0 -0.5838324707
O  O11  1  0.90272000  0.63400000  0.58430000  1.0 -0.6900179964
O  O12  1  0.64517000  0.77077000  0.57067000  1.0 -0.6625025652
O  O13  1  0.71725000  0.62975000  0.60190000  1.0 -0.572663216
O  O14  1  0.86118000  0.41538000  0.48380000  1.0 -0.4672029149
O  O15  1  0.27412000  0.44932000  0.45090000  1.0 -0.4945240599
O  O16  1  0.47851000  0.79751000  0.39810000  1.0 -0.8121442181
O  O17  1  0.53475000  0.00647000  0.51223000  1.0 -0.6625025652
O  O18  1  0.51481000  0.14035000  0.51450000  1.0 -0.5955581647
O  O19  1  0.32079000  0.13983000  0.53196000  1.0 -0.6625025652
O  O20  1  0.33214000  0.01662000  0.51010000  1.0 -0.5895782691
O  O21  1  0.37665000  0.25733000  0.30810000  1.0 -0.572663216
O  O22  1  0.25792000  0.10814000  0.31020000  1.0 -0.572663216
O  O23  1  0.29389000  0.28737000  0.37474000  1.0 -0.682212947
O  O24  1  0.40015000  0.02507000  0.35343000  1.0 -0.6900179964
O  O25  1  0.75686000  0.87854000  0.39180000  1.0 -0.5838324707
O  O26  1  0.63400000  0.90272000  0.41570000  1.0 -0.6952372771
O  O27  1  0.77077000  0.64517000  0.42933000  1.0 -0.6625025652
O  O28  1  0.62975000  0.71725000  0.39810000  1.0 -0.572663216
O  O29  1  0.41538000  0.86118000  0.51620000  1.0 -0.4672029149
O  O30  1  0.44932000  0.27412000  0.54910000  1.0 -0.4960694295
