# DDEC6 charges by PACMAN v1.1 (https://github.com/mtap-research/PACMAN-charge/)
data_ZERLOA_ASR_pacman
_symmetry_space_group_name_H-M   'P 1'
_cell_length_a   13.44340000
_cell_length_b   13.44340000
_cell_length_c   19.89510000
_cell_angle_alpha   81.32710000
_cell_angle_beta   98.67290000
_cell_angle_gamma   133.36600000
_symmetry_Int_Tables_number   1
_chemical_formula_structural   KCuBH10W12C12(NO8)4
_chemical_formula_sum   'K2 Cu2 B2 H20 W24 C24 N8 O64'
_cell_volume   2578.41534490
_cell_formula_units_Z   2
loop_
 _symmetry_equiv_pos_site_id
 _symmetry_equiv_pos_as_xyz
  1  'x, y, z'
loop_
 _atom_site_type_symbol
 _atom_site_label
 _atom_site_symmetry_multiplicity
 _atom_site_fract_x
 _atom_site_fract_y
 _atom_site_fract_z
 _atom_site_occupancy
 _atom_site_charge
K  K1  1  0.99850000  0.99850000  0.75000000  1.0 0.8963247888
K  K2  1  0.00150000  0.00150000  0.25000000  1.0 0.8963247888
Cu  Cu1  1  0.00000000  0.00000000  0.50000000  1.0 0.8660816603
Cu  Cu2  1  0.00000000  0.00000000  0.00000000  1.0 0.8660816603
B  B1  1  0.49330000  0.49330000  0.75000000  1.0 0.8894560985
B  B2  1  0.50670000  0.50670000  0.25000000  1.0 0.8894560985
H  H1  1  0.71030000  0.90510000  0.48200000  1.0 0.1091564424
H  H2  1  0.04870000  0.22830000  0.56720000  1.0 0.1091564424
H  H3  1  0.87680000  0.23580000  0.57380000  1.0 0.0981753744
H  H4  1  0.65250000  0.12690000  0.59010000  1.0 0.0981753744
H  H5  1  0.45970000  0.09530000  0.56640000  1.0 0.1202375569
H  H6  1  0.90510000  0.71030000  0.01800000  1.0 0.1091564424
H  H7  1  0.22830000  0.04870000  0.93280000  1.0 0.1091564424
H  H8  1  0.23580000  0.87680000  0.92620000  1.0 0.0981753744
H  H9  1  0.12690000  0.65250000  0.90990000  1.0 0.0981753744
H  H10  1  0.09530000  0.45970000  0.93360000  1.0 0.1202375569
H  H11  1  0.28970000  0.09490000  0.51800000  1.0 0.1091564424
H  H12  1  0.95130000  0.77170000  0.43280000  1.0 0.1091564424
H  H13  1  0.12320000  0.76420000  0.42620000  1.0 0.0981753744
H  H14  1  0.34750000  0.87310000  0.40990000  1.0 0.0981753744
H  H15  1  0.54030000  0.90470000  0.43360000  1.0 0.1202375569
H  H16  1  0.09490000  0.28970000  0.98200000  1.0 0.1091564424
H  H17  1  0.77170000  0.95130000  0.06720000  1.0 0.1091564424
H  H18  1  0.76420000  0.12320000  0.07380000  1.0 0.0981753744
H  H19  1  0.87310000  0.34750000  0.09010000  1.0 0.0981753744
H  H20  1  0.90470000  0.54030000  0.06640000  1.0 0.1202375569
W  W1  1  0.43340000  0.58748000  0.58559000  1.0 2.2342396132
W  W2  1  0.60543000  0.36941000  0.67222000  1.0 2.371798959
W  W3  1  0.37543000  0.17143000  0.78913000  1.0 2.3585675113
W  W4  1  0.82468000  0.62364000  0.80095000  1.0 2.3185430519
W  W5  1  0.74826000  0.71892000  0.63158000  1.0 2.371798959
W  W6  1  0.28783000  0.23923000  0.63590000  1.0 2.3532218091
W  W7  1  0.58748000  0.43340000  0.91441000  1.0 2.2342396132
W  W8  1  0.36941000  0.60543000  0.82778000  1.0 2.371798959
W  W9  1  0.17143000  0.37543000  0.71087000  1.0 2.3585675113
W  W10  1  0.62364000  0.82468000  0.69905000  1.0 2.3185430519
W  W11  1  0.71892000  0.74826000  0.86842000  1.0 2.371798959
W  W12  1  0.23923000  0.28783000  0.86410000  1.0 2.3532218091
W  W13  1  0.56660000  0.41252000  0.41441000  1.0 2.2342396132
W  W14  1  0.39457000  0.63059000  0.32778000  1.0 2.371798959
W  W15  1  0.62457000  0.82857000  0.21087000  1.0 2.3585675113
W  W16  1  0.17532000  0.37636000  0.19905000  1.0 2.3185430519
W  W17  1  0.25174000  0.28108000  0.36842000  1.0 2.371798959
W  W18  1  0.71217000  0.76077000  0.36410000  1.0 2.3532218091
W  W19  1  0.41252000  0.56660000  0.08559000  1.0 2.2342396132
W  W20  1  0.63059000  0.39457000  0.17222000  1.0 2.381796395
W  W21  1  0.82857000  0.62457000  0.28913000  1.0 2.3585675113
W  W22  1  0.37636000  0.17532000  0.30095000  1.0 2.3185430519
W  W23  1  0.28108000  0.25174000  0.13158000  1.0 2.371798959
W  W24  1  0.76077000  0.71217000  0.13590000  1.0 2.3532218091
C  C1  1  0.77320000  0.98580000  0.50450000  1.0 0.1091564424
C  C2  1  0.95750000  0.16290000  0.55110000  1.0 -0.0545320384
C  C3  1  0.86380000  0.16800000  0.55490000  1.0 -0.1565024633
C  C4  1  0.61720000  0.02280000  0.51330000  1.0 0.1271425016
C  C5  1  0.59130000  0.07670000  0.55360000  1.0 -0.1716064852
C  C6  1  0.47590000  0.05650000  0.54020000  1.0 -0.1716064852
C  C7  1  0.98580000  0.77320000  0.99550000  1.0 0.1091564424
C  C8  1  0.16290000  0.95750000  0.94890000  1.0 -0.0552212786
C  C9  1  0.16800000  0.86380000  0.94510000  1.0 -0.1565024633
C  C10  1  0.02280000  0.61720000  0.98670000  1.0 0.1271425016
C  C11  1  0.07670000  0.59130000  0.94640000  1.0 -0.1716064852
C  C12  1  0.05650000  0.47590000  0.95980000  1.0 -0.1716064852
C  C13  1  0.22680000  0.01420000  0.49550000  1.0 0.1091564424
C  C14  1  0.04250000  0.83710000  0.44890000  1.0 -0.0552212786
C  C15  1  0.13620000  0.83200000  0.44510000  1.0 -0.1565024633
C  C16  1  0.38280000  0.97720000  0.48670000  1.0 0.1271425016
C  C17  1  0.40870000  0.92330000  0.44640000  1.0 -0.1716064852
C  C18  1  0.52410000  0.94350000  0.45980000  1.0 -0.1716064852
C  C19  1  0.01420000  0.22680000  0.00450000  1.0 0.1091564424
C  C20  1  0.83710000  0.04250000  0.05110000  1.0 -0.0545320384
C  C21  1  0.83200000  0.13620000  0.05490000  1.0 -0.1565024633
C  C22  1  0.97720000  0.38280000  0.01330000  1.0 0.1271425016
C  C23  1  0.92330000  0.40870000  0.05360000  1.0 -0.1716064852
C  C24  1  0.94350000  0.52410000  0.04020000  1.0 -0.1716064852
N  N1  1  0.90240000  0.04780000  0.52000000  1.0 -0.2886624135
N  N2  1  0.74280000  0.05320000  0.52530000  1.0 -0.0288083431
N  N3  1  0.04780000  0.90240000  0.98000000  1.0 -0.2886624135
N  N4  1  0.05320000  0.74280000  0.97470000  1.0 -0.0288083431
N  N5  1  0.09760000  0.95220000  0.48000000  1.0 -0.2886624135
N  N6  1  0.25720000  0.94680000  0.47470000  1.0 -0.0288083431
N  N7  1  0.95220000  0.09760000  0.02000000  1.0 -0.2886624135
N  N8  1  0.94680000  0.25720000  0.02530000  1.0 -0.0288083431
O  O1  1  0.76090000  0.51170000  0.88320000  1.0 -0.9633143418
O  O2  1  0.28300000  0.50460000  0.64110000  1.0 -0.9633143418
O  O3  1  0.37020000  0.41040000  0.58920000  1.0 -0.8948334702
O  O4  1  0.45850000  0.37510000  0.72310000  1.0 -1.068536485
O  O5  1  0.67720000  0.53780000  0.62760000  1.0 -0.9300348558
O  O6  1  0.88750000  0.81650000  0.58180000  1.0 -0.7786686667
O  O7  1  0.16610000  0.12970000  0.57460000  1.0 -0.7856336681
O  O8  1  0.72970000  0.47230000  0.74890000  1.0 -0.9691911138
O  O9  1  0.55200000  0.60780000  0.69180000  1.0 -1.0593710788
O  O10  1  0.76840000  0.86400000  0.65500000  1.0 -0.9897840865
O  O11  1  0.25610000  0.18210000  0.82340000  1.0 -0.9800582178
O  O12  1  0.50900000  0.21080000  0.73800000  1.0 -1.0293158837
O  O13  1  0.25080000  0.10780000  0.70690000  1.0 -0.9897840865
O  O14  1  0.44140000  0.26820000  0.61430000  1.0 -0.9382353671
O  O15  1  0.61100000  0.67440000  0.56140000  1.0 -0.9147929199
O  O16  1  0.83600000  0.72600000  0.71720000  1.0 -0.9800582178
O  O17  1  0.51170000  0.76090000  0.61680000  1.0 -0.9633143418
O  O18  1  0.50460000  0.28300000  0.85890000  1.0 -0.9633143418
O  O19  1  0.41040000  0.37020000  0.91080000  1.0 -0.8948334702
O  O20  1  0.37510000  0.45850000  0.77690000  1.0 -1.068536485
O  O21  1  0.53780000  0.67720000  0.87240000  1.0 -0.9300348558
O  O22  1  0.81650000  0.88750000  0.91820000  1.0 -0.7786686667
O  O23  1  0.12970000  0.16610000  0.92540000  1.0 -0.7856336681
O  O24  1  0.47230000  0.72970000  0.75110000  1.0 -0.9691911138
O  O25  1  0.60780000  0.55200000  0.80820000  1.0 -1.0593710788
O  O26  1  0.86400000  0.76840000  0.84500000  1.0 -0.9897840865
O  O27  1  0.18210000  0.25610000  0.67660000  1.0 -0.9800582178
O  O28  1  0.21080000  0.50900000  0.76200000  1.0 -1.0293158837
O  O29  1  0.10780000  0.25080000  0.79310000  1.0 -0.9897840865
O  O30  1  0.26820000  0.44140000  0.88570000  1.0 -0.9382353671
O  O31  1  0.67440000  0.61100000  0.93860000  1.0 -0.9147929199
O  O32  1  0.72600000  0.83600000  0.78280000  1.0 -0.9800582178
O  O33  1  0.23910000  0.48830000  0.11680000  1.0 -0.9633143418
O  O34  1  0.71700000  0.49540000  0.35890000  1.0 -0.9633143418
O  O35  1  0.62980000  0.58960000  0.41080000  1.0 -0.8948334702
O  O36  1  0.54150000  0.62490000  0.27690000  1.0 -1.068536485
O  O37  1  0.32280000  0.46220000  0.37240000  1.0 -0.9300348558
O  O38  1  0.11250000  0.18350000  0.41820000  1.0 -0.7786686667
O  O39  1  0.83390000  0.87030000  0.42540000  1.0 -0.7856336681
O  O40  1  0.27030000  0.52770000  0.25110000  1.0 -0.9691911138
O  O41  1  0.44800000  0.39220000  0.30820000  1.0 -1.0593710788
O  O42  1  0.23160000  0.13600000  0.34500000  1.0 -0.9897840865
O  O43  1  0.74390000  0.81790000  0.17660000  1.0 -0.9800582178
O  O44  1  0.49100000  0.78920000  0.26200000  1.0 -1.0293158837
O  O45  1  0.74920000  0.89220000  0.29310000  1.0 -0.9897840865
O  O46  1  0.55860000  0.73180000  0.38570000  1.0 -0.9382353671
O  O47  1  0.38900000  0.32560000  0.43860000  1.0 -0.9152761348
O  O48  1  0.16400000  0.27400000  0.28280000  1.0 -0.9800582178
O  O49  1  0.48830000  0.23910000  0.38320000  1.0 -0.9633143418
O  O50  1  0.49540000  0.71700000  0.14110000  1.0 -0.9633143418
O  O51  1  0.58960000  0.62980000  0.08920000  1.0 -0.8948334702
O  O52  1  0.62490000  0.54150000  0.22310000  1.0 -1.068536485
O  O53  1  0.46220000  0.32280000  0.12760000  1.0 -0.9300348558
O  O54  1  0.18350000  0.11250000  0.08180000  1.0 -0.7786686667
O  O55  1  0.87030000  0.83390000  0.07460000  1.0 -0.7786686667
O  O56  1  0.52770000  0.27030000  0.24890000  1.0 -0.9691911138
O  O57  1  0.39220000  0.44800000  0.19180000  1.0 -1.0593710788
O  O58  1  0.13600000  0.23160000  0.15500000  1.0 -0.9897840865
O  O59  1  0.81790000  0.74390000  0.32340000  1.0 -0.9897840865
O  O60  1  0.78920000  0.49100000  0.23800000  1.0 -1.0293158837
O  O61  1  0.89220000  0.74920000  0.20690000  1.0 -0.9897840865
O  O62  1  0.73180000  0.55860000  0.11430000  1.0 -0.9382353671
O  O63  1  0.32560000  0.38900000  0.06140000  1.0 -0.9147929199
O  O64  1  0.27400000  0.16400000  0.21720000  1.0 -0.9800582178
