# DDEC6 charges by PACMAN v1.1 (https://github.com/mtap-research/PACMAN-charge/)
data_ZERLEQ_FSR_pacman
_symmetry_space_group_name_H-M   'P 1'
_cell_length_a   13.54500000
_cell_length_b   15.08340000
_cell_length_c   17.91570000
_cell_angle_alpha   80.49300000
_cell_angle_beta   76.18100000
_cell_angle_gamma   67.28200000
_symmetry_Int_Tables_number   1
_chemical_formula_structural   CoBH17W12C18N6O41
_chemical_formula_sum   'Co2 B2 H34 W24 C36 N12 O82'
_cell_volume   3267.67661939
_cell_formula_units_Z   2
loop_
 _symmetry_equiv_pos_site_id
 _symmetry_equiv_pos_as_xyz
  1  'x, y, z'
loop_
 _atom_site_type_symbol
 _atom_site_label
 _atom_site_symmetry_multiplicity
 _atom_site_fract_x
 _atom_site_fract_y
 _atom_site_fract_z
 _atom_site_occupancy
 _atom_site_charge
Co  Co1  1  0.43666000  0.26866000  0.15676000  1.0 0.9226446975
Co  Co2  1  0.56334000  0.73134000  0.84324000  1.0 0.9226446975
B  B1  1  0.31840000  0.76000000  0.23640000  1.0 0.9478096594
B  B2  1  0.68160000  0.24000000  0.76360000  1.0 0.9478096594
H  H1  1  0.43730000  0.09220000  0.15310000  1.0 0.3984337528
H  H2  1  0.52430000  0.10800000  0.08230000  1.0 0.4145649601
H  H3  1  0.24670000  0.19690000  0.16430000  1.0 0.1415482913
H  H4  1  0.22290000  0.46100000  0.16390000  1.0 0.1415482913
H  H5  1  0.03490000  0.47140000  0.14680000  1.0 0.160649839
H  H6  1  0.11600000  0.15570000  0.12160000  1.0 0.160649839
H  H7  1  0.97440000  0.10910000  0.11800000  1.0 0.160649839
H  H8  1  0.75980000  0.35610000  0.20050000  1.0 0.1520016179
H  H9  1  0.89960000  0.40670000  0.20280000  1.0 0.1520016179
H  H10  1  0.64120000  0.32310000  0.13760000  1.0 0.1415482913
H  H11  1  0.82910000  0.04750000  0.17220000  1.0 0.160649839
H  H12  1  0.63810000  0.06260000  0.16280000  1.0 0.1300012796
H  H13  1  0.32640000  0.36370000  0.32120000  1.0 0.1520016179
H  H14  1  0.34140000  0.27730000  0.44910000  1.0 0.160649839
H  H15  1  0.46760000  0.09100000  0.28860000  1.0 0.1300012796
H  H16  1  0.49300000  0.15060000  0.51790000  1.0 0.1520016179
H  H17  1  0.44540000  0.97480000  0.39480000  1.0 0.1723922644
H  H18  1  0.56270000  0.90780000  0.84690000  1.0 0.3984337528
H  H19  1  0.47570000  0.89200000  0.91770000  1.0 0.4145649601
H  H20  1  0.75330000  0.80310000  0.83570000  1.0 0.1415482913
H  H21  1  0.77710000  0.53900000  0.83610000  1.0 0.1415482913
H  H22  1  0.96510000  0.52860000  0.85320000  1.0 0.160649839
H  H23  1  0.88400000  0.84430000  0.87840000  1.0 0.160649839
H  H24  1  0.02560000  0.89090000  0.88200000  1.0 0.160649839
H  H25  1  0.24020000  0.64390000  0.79950000  1.0 0.1520016179
H  H26  1  0.10040000  0.59330000  0.79720000  1.0 0.1520016179
H  H27  1  0.35880000  0.67690000  0.86240000  1.0 0.1415482913
H  H28  1  0.17090000  0.95250000  0.82780000  1.0 0.160649839
H  H29  1  0.36190000  0.93740000  0.83720000  1.0 0.1300012796
H  H30  1  0.67360000  0.63630000  0.67880000  1.0 0.1520016179
H  H31  1  0.65860000  0.72270000  0.55090000  1.0 0.160649839
H  H32  1  0.53240000  0.90900000  0.71140000  1.0 0.1300012796
H  H33  1  0.50700000  0.84940000  0.48210000  1.0 0.1520016179
H  H34  1  0.55460000  0.02520000  0.60520000  1.0 0.1723922644
W  W1  1  0.44653000  0.69132000  0.39722000  1.0 2.3609711159
W  W2  1  0.27447000  0.58812000  0.38555000  1.0 2.3284684647
W  W3  1  0.50978000  0.86264000  0.24157000  1.0 2.4206280936
W  W4  1  0.18081000  0.81696000  0.42247000  1.0 2.3239439954
W  W5  1  0.04613000  0.90016000  0.25680000  1.0 2.3920868863
W  W6  1  0.12228000  0.67133000  0.22751000  1.0 2.4381219376
W  W7  1  0.36897000  0.93565000  0.09972000  1.0 2.3414021163
W  W8  1  0.17740000  0.82618000  0.08487000  1.0 2.3814317812
W  W9  1  0.47124000  0.68458000  0.05742000  1.0 2.4381219376
W  W10  1  0.41332000  0.52341000  0.18994000  1.0 2.3993520964
W  W11  1  0.24529000  0.99765000  0.27757000  1.0 2.3675961722
W  W12  1  0.59772000  0.60895000  0.20693000  1.0 2.3814317812
W  W13  1  0.55347000  0.30868000  0.60278000  1.0 2.3530978192
W  W14  1  0.72553000  0.41188000  0.61445000  1.0 2.3414021163
W  W15  1  0.49022000  0.13736000  0.75843000  1.0 2.4206280936
W  W16  1  0.81919000  0.18304000  0.57753000  1.0 2.3239439954
W  W17  1  0.95387000  0.09984000  0.74320000  1.0 2.3920868863
W  W18  1  0.87772000  0.32867000  0.77249000  1.0 2.4381219376
W  W19  1  0.63103000  0.06435000  0.90028000  1.0 2.3414021163
W  W20  1  0.82260000  0.17382000  0.91513000  1.0 2.3814317812
W  W21  1  0.52876000  0.31542000  0.94258000  1.0 2.4381219376
W  W22  1  0.58668000  0.47659000  0.81006000  1.0 2.3993520964
W  W23  1  0.75471000  0.00235000  0.72243000  1.0 2.3675961722
W  W24  1  0.40228000  0.39105000  0.79307000  1.0 2.3814317812
C  C1  1  0.21710000  0.26400000  0.15970000  1.0 0.1415482913
C  C2  1  0.20390000  0.41010000  0.15770000  1.0 0.0627322034
C  C3  1  0.09590000  0.41660000  0.15310000  1.0 -0.0702767964
C  C4  1  0.02250000  0.28670000  0.16230000  1.0 0.1766194333
C  C5  1  0.04430000  0.19640000  0.13730000  1.0 -0.1344470825
C  C6  1  0.95980000  0.16820000  0.13600000  1.0 -0.106690153
C  C7  1  0.85420000  0.22660000  0.16100000  1.0 0.160649839
C  C8  1  0.83180000  0.31600000  0.18500000  1.0 -0.1406900506
C  C9  1  0.91520000  0.34660000  0.18620000  1.0 -0.1406900506
C  C10  1  0.66380000  0.25640000  0.14700000  1.0 0.1415482913
C  C11  1  0.77010000  0.10390000  0.16550000  1.0 -0.0028286093
C  C12  1  0.66290000  0.11280000  0.16040000  1.0 -0.0028286093
C  C13  1  0.35900000  0.29740000  0.33150000  1.0 0.012468962
C  C14  1  0.36770000  0.24970000  0.40220000  1.0 -0.0702767964
C  C15  1  0.43790000  0.14830000  0.31250000  1.0 0.1300012796
C  C16  1  0.49490000  0.09020000  0.51090000  1.0 -0.1220842968
C  C17  1  0.45570000  0.07880000  0.44430000  1.0 0.1972935279
C  C18  1  0.46600000  0.98630000  0.43720000  1.0 -0.1472496461
C  C19  1  0.78290000  0.73600000  0.84030000  1.0 0.1415482913
C  C20  1  0.79610000  0.58990000  0.84230000  1.0 0.0627322034
C  C21  1  0.90410000  0.58340000  0.84690000  1.0 -0.0702767964
C  C22  1  0.97750000  0.71330000  0.83770000  1.0 0.1766194333
C  C23  1  0.95570000  0.80360000  0.86270000  1.0 -0.1344470825
C  C24  1  0.04020000  0.83180000  0.86400000  1.0 -0.106690153
C  C25  1  0.14580000  0.77340000  0.83900000  1.0 0.160649839
C  C26  1  0.16820000  0.68400000  0.81500000  1.0 -0.1406900506
C  C27  1  0.08480000  0.65340000  0.81380000  1.0 -0.1406900506
C  C28  1  0.33620000  0.74360000  0.85300000  1.0 0.1415482913
C  C29  1  0.22990000  0.89610000  0.83450000  1.0 -0.0028286093
C  C30  1  0.33710000  0.88720000  0.83960000  1.0 -0.0028286093
C  C31  1  0.64100000  0.70260000  0.66850000  1.0 0.012468962
C  C32  1  0.63230000  0.75030000  0.59780000  1.0 -0.0702767964
C  C33  1  0.56210000  0.85170000  0.68750000  1.0 0.1300012796
C  C34  1  0.50510000  0.90980000  0.48910000  1.0 -0.1220842968
C  C35  1  0.54430000  0.92120000  0.55570000  1.0 0.1972935279
C  C36  1  0.53400000  0.01370000  0.56280000  1.0 -0.1472496461
N  N1  1  0.27140000  0.31890000  0.15140000  1.0 -0.2304052185
N  N2  1  0.10690000  0.31890000  0.16090000  1.0 0.012468962
N  N3  1  0.76700000  0.19510000  0.15850000  1.0 0.0216461797
N  N4  1  0.60540000  0.20670000  0.15140000  1.0 -0.2513979446
N  N5  1  0.42230000  0.15330000  0.39210000  1.0 0.012468962
N  N6  1  0.40720000  0.23010000  0.27770000  1.0 -0.269302405
N  N7  1  0.72860000  0.68110000  0.84860000  1.0 -0.2304052185
N  N8  1  0.89310000  0.68110000  0.83910000  1.0 0.012468962
N  N9  1  0.23300000  0.80490000  0.84150000  1.0 0.0216461797
N  N10  1  0.39460000  0.79330000  0.84860000  1.0 -0.2513979446
N  N11  1  0.57770000  0.84670000  0.60790000  1.0 0.012468962
N  N12  1  0.59280000  0.76990000  0.72230000  1.0 -0.269302405
O  O1  1  0.45170000  0.13670000  0.11100000  1.0 -0.7340526353
O  O2  1  0.52580000  0.67430000  0.95800000  1.0 -0.7382487725
O  O3  1  0.39070000  0.97630000  0.28340000  1.0 -0.8862077515
O  O4  1  0.34850000  0.84990000  0.21950000  1.0 -0.9818733703
O  O5  1  0.31310000  0.72650000  0.32380000  1.0 -0.969060279
O  O6  1  0.21190000  0.78020000  0.21270000  1.0 -0.9925894211
O  O7  1  0.73350000  0.55310000  0.20750000  1.0 -0.6260996829
O  O8  1  0.24440000  0.49710000  0.43990000  1.0 -0.5598799955
O  O9  1  0.54190000  0.61760000  0.31310000  1.0 -0.8500090967
O  O10  1  0.16590000  0.62970000  0.32420000  1.0 -0.8582696274
O  O11  1  0.11860000  0.72930000  0.12020000  1.0 -0.8500090967
O  O12  1  0.32190000  0.73550000  0.05250000  1.0 -0.8582696274
O  O13  1  0.37450000  0.52350000  0.30270000  1.0 -0.8387446431
O  O14  1  0.46260000  0.55770000  0.08520000  1.0 -0.8387446431
O  O15  1  0.60320000  0.63310000  0.09590000  1.0 -0.8582696274
O  O16  1  0.55900000  0.50140000  0.20490000  1.0 -0.8684151094
O  O17  1  0.58300000  0.74100000  0.20260000  1.0 -0.8582696274
O  O18  1  0.46160000  0.81100000  0.06350000  1.0 -0.8387446431
O  O19  1  0.61760000  0.89160000  0.25690000  1.0 -0.7212394248
O  O20  1  0.39430000  0.58530000  0.42900000  1.0 -0.8582696274
O  O21  1  0.10030000  0.86820000  0.50630000  1.0 -0.581943966
O  O22  1  0.42780000  0.40650000  0.17730000  1.0 -0.7382487725
O  O23  1  0.08320000  0.85090000  0.35700000  1.0 -0.8387446431
O  O24  1  0.53110000  0.66110000  0.46090000  1.0 -0.5902771275
O  O25  1  0.00940000  0.78780000  0.26000000  1.0 -0.8799394141
O  O26  1  0.31650000  0.77320000  0.45720000  1.0 -0.8582696274
O  O27  1  0.47890000  0.79640000  0.34110000  1.0 -0.8500090967
O  O28  1  0.26880000  0.58220000  0.18530000  1.0 -0.8387446431
O  O29  1  0.12410000  0.97940000  0.24900000  1.0 -0.8387446431
O  O30  1  0.22130000  0.92510000  0.36640000  1.0 -0.807290874
O  O31  1  0.28170000  0.03380000  0.16530000  1.0 -0.8684151094
O  O32  1  0.91570000  0.98250000  0.28040000  1.0 -0.6502554785
O  O33  1  0.04310000  0.60360000  0.22710000  1.0 -0.6990625035
O  O34  1  0.39150000  0.00610000  0.01940000  1.0 -0.5902771275
O  O35  1  0.25200000  0.91300000  0.08830000  1.0 -0.807290874
O  O36  1  0.40920000  0.67820000  0.18990000  1.0 -0.9962456594
O  O37  1  0.13430000  0.86050000  0.00040000  1.0 -0.6224541436
O  O38  1  0.18680000  0.11020000  0.31200000  1.0 -0.657610781
O  O39  1  0.49430000  0.92650000  0.14160000  1.0 -0.8799394141
O  O40  1  0.17980000  0.69130000  0.44990000  1.0 -0.8862077515
O  O41  1  0.05490000  0.91280000  0.14920000  1.0 -0.8387446431
O  O42  1  0.54830000  0.86330000  0.88900000  1.0 -0.7340526353
O  O43  1  0.47420000  0.32570000  0.04200000  1.0 -0.7382487725
O  O44  1  0.60930000  0.02370000  0.71660000  1.0 -0.8862077515
O  O45  1  0.65150000  0.15010000  0.78050000  1.0 -0.9818733703
O  O46  1  0.68690000  0.27350000  0.67620000  1.0 -0.969060279
O  O47  1  0.78810000  0.21980000  0.78730000  1.0 -0.9925894211
O  O48  1  0.26650000  0.44690000  0.79250000  1.0 -0.6260996829
O  O49  1  0.75560000  0.50290000  0.56010000  1.0 -0.5598799955
O  O50  1  0.45810000  0.38240000  0.68690000  1.0 -0.8500090967
O  O51  1  0.83410000  0.37030000  0.67580000  1.0 -0.8582696274
O  O52  1  0.88140000  0.27070000  0.87980000  1.0 -0.8500090967
O  O53  1  0.67810000  0.26450000  0.94750000  1.0 -0.8582696274
O  O54  1  0.62550000  0.47650000  0.69730000  1.0 -0.8387446431
O  O55  1  0.53740000  0.44230000  0.91480000  1.0 -0.8387446431
O  O56  1  0.39680000  0.36690000  0.90410000  1.0 -0.8582696274
O  O57  1  0.44100000  0.49860000  0.79510000  1.0 -0.8684151094
O  O58  1  0.41700000  0.25900000  0.79740000  1.0 -0.8582696274
O  O59  1  0.53840000  0.18900000  0.93650000  1.0 -0.8387446431
O  O60  1  0.38240000  0.10840000  0.74310000  1.0 -0.7212394248
O  O61  1  0.60570000  0.41470000  0.57100000  1.0 -0.8582696274
O  O62  1  0.89970000  0.13180000  0.49370000  1.0 -0.581943966
O  O63  1  0.57220000  0.59350000  0.82270000  1.0 -0.7382487725
O  O64  1  0.91680000  0.14910000  0.64300000  1.0 -0.8387446431
O  O65  1  0.46890000  0.33890000  0.53910000  1.0 -0.5902771275
O  O66  1  0.99060000  0.21220000  0.74000000  1.0 -0.8799394141
O  O67  1  0.68350000  0.22680000  0.54280000  1.0 -0.8582696274
O  O68  1  0.52110000  0.20360000  0.65890000  1.0 -0.8582696274
O  O69  1  0.73120000  0.41780000  0.81470000  1.0 -0.8387446431
O  O70  1  0.87590000  0.02060000  0.75100000  1.0 -0.8387446431
O  O71  1  0.77870000  0.07490000  0.63360000  1.0 -0.807290874
O  O72  1  0.71830000  0.96620000  0.83470000  1.0 -0.8684151094
O  O73  1  0.08430000  0.01750000  0.71960000  1.0 -0.6502554785
O  O74  1  0.95690000  0.39640000  0.77290000  1.0 -0.6990625035
O  O75  1  0.60850000  0.99390000  0.98060000  1.0 -0.5902771275
O  O76  1  0.74800000  0.08700000  0.91170000  1.0 -0.807290874
O  O77  1  0.59080000  0.32180000  0.81010000  1.0 -0.9962456594
O  O78  1  0.86570000  0.13950000  0.99960000  1.0 -0.6224541436
O  O79  1  0.81320000  0.88980000  0.68800000  1.0 -0.657610781
O  O80  1  0.50570000  0.07350000  0.85840000  1.0 -0.8799394141
O  O81  1  0.82020000  0.30870000  0.55010000  1.0 -0.8862077515
O  O82  1  0.94510000  0.08720000  0.85080000  1.0 -0.8387446431
