# DDEC6 charges by PACMAN v1.1 (https://github.com/mtap-research/PACMAN-charge/)
data_ZERQOE_ASR_pacman
_symmetry_space_group_name_H-M   'P 1'
_cell_length_a   11.88310000
_cell_length_b   5.54180000
_cell_length_c   23.36630000
_cell_angle_alpha   90.00000000
_cell_angle_beta   108.27100000
_cell_angle_gamma   90.00000000
_symmetry_Int_Tables_number   1
_chemical_formula_structural   CaH8C14SO6
_chemical_formula_sum   'Ca4 H32 C56 S4 O24'
_cell_volume   1461.18116624
_cell_formula_units_Z   4
loop_
 _symmetry_equiv_pos_site_id
 _symmetry_equiv_pos_as_xyz
  1  'x, y, z'
loop_
 _atom_site_type_symbol
 _atom_site_label
 _atom_site_symmetry_multiplicity
 _atom_site_fract_x
 _atom_site_fract_y
 _atom_site_fract_z
 _atom_site_occupancy
 _atom_site_charge
Ca  Ca1  1  0.43982000  0.23474000  0.04209000  1.0 1.4058142843
Ca  Ca2  1  0.56018000  0.73474000  0.45791000  1.0 1.4058142843
Ca  Ca3  1  0.56018000  0.76526000  0.95791000  1.0 1.4058142843
Ca  Ca4  1  0.43982000  0.26526000  0.54209000  1.0 1.4058142843
H  H1  1  0.01150000  0.78770000  0.11900000  1.0 0.1197332285
H  H2  1  0.98850000  0.28770000  0.38100000  1.0 0.1197332285
H  H3  1  0.98850000  0.21230000  0.88100000  1.0 0.1197332285
H  H4  1  0.01150000  0.71230000  0.61900000  1.0 0.1197332285
H  H5  1  0.23650000  0.78830000  0.21410000  1.0 0.1197332285
H  H6  1  0.76350000  0.28830000  0.28590000  1.0 0.1197332285
H  H7  1  0.76350000  0.21170000  0.78590000  1.0 0.1197332285
H  H8  1  0.23650000  0.71170000  0.71410000  1.0 0.1197332285
H  H9  1  0.34200000  0.42700000  0.16600000  1.0 0.1295259212
H  H10  1  0.65800000  0.92700000  0.33400000  1.0 0.1295259212
H  H11  1  0.65800000  0.57300000  0.83400000  1.0 0.1295259212
H  H12  1  0.34200000  0.07300000  0.66600000  1.0 0.1295259212
H  H13  1  0.81040000  0.87640000  0.09020000  1.0 0.1295259212
H  H14  1  0.18960000  0.37640000  0.40980000  1.0 0.1295259212
H  H15  1  0.18960000  0.12360000  0.90980000  1.0 0.1295259212
H  H16  1  0.81040000  0.62360000  0.59020000  1.0 0.1295259212
H  H17  1  0.43990000  0.51080000  0.26720000  1.0 0.1122160702
H  H18  1  0.56010000  0.01080000  0.23280000  1.0 0.1122160702
H  H19  1  0.56010000  0.48920000  0.73280000  1.0 0.1122160702
H  H20  1  0.43990000  0.98920000  0.76720000  1.0 0.1122160702
H  H21  1  0.34020000  0.86900000  0.31450000  1.0 0.1295259212
H  H22  1  0.65980000  0.36900000  0.18550000  1.0 0.1295259212
H  H23  1  0.65980000  0.13100000  0.68550000  1.0 0.1295259212
H  H24  1  0.34020000  0.63100000  0.81450000  1.0 0.1295259212
H  H25  1  0.07560000  0.43850000  0.05900000  1.0 0.1295259212
H  H26  1  0.92440000  0.93850000  0.44100000  1.0 0.1295259212
H  H27  1  0.92440000  0.56150000  0.94100000  1.0 0.1295259212
H  H28  1  0.07560000  0.06150000  0.55900000  1.0 0.1295259212
H  H29  1  0.87430000  0.52730000  0.03180000  1.0 0.1197332285
H  H30  1  0.12570000  0.02730000  0.46820000  1.0 0.1197332285
H  H31  1  0.12570000  0.47270000  0.96820000  1.0 0.1197332285
H  H32  1  0.87430000  0.97270000  0.53180000  1.0 0.1197332285
C  C1  1  0.47378000  0.24580000  0.36572000  1.0 0.6201422157
C  C2  1  0.52622000  0.74580000  0.13428000  1.0 0.6201422157
C  C3  1  0.52622000  0.75420000  0.63428000  1.0 0.6201422157
C  C4  1  0.47378000  0.25420000  0.86572000  1.0 0.6201422157
C  C5  1  0.69174000  0.26710000  0.03583000  1.0 0.6201422157
C  C6  1  0.30826000  0.76710000  0.46417000  1.0 0.6201422157
C  C7  1  0.30826000  0.73290000  0.96417000  1.0 0.6201422157
C  C8  1  0.69174000  0.23290000  0.53583000  1.0 0.6201422157
C  C9  1  0.98329000  0.93390000  0.10049000  1.0 -0.0992519843
C  C10  1  0.01671000  0.43390000  0.39951000  1.0 -0.0992519843
C  C11  1  0.01671000  0.06610000  0.89951000  1.0 -0.0992519843
C  C12  1  0.98329000  0.56610000  0.60049000  1.0 -0.0992519843
C  C13  1  0.27906000  0.93100000  0.22476000  1.0 -0.1063238849
C  C14  1  0.72094000  0.43100000  0.27524000  1.0 -0.1063238849
C  C15  1  0.72094000  0.06900000  0.77524000  1.0 -0.1063238849
C  C16  1  0.27906000  0.56900000  0.72476000  1.0 -0.1063238849
C  C17  1  0.34165000  0.31590000  0.19575000  1.0 -0.0918132491
C  C18  1  0.65835000  0.81590000  0.30425000  1.0 -0.0918132491
C  C19  1  0.65835000  0.68410000  0.80425000  1.0 -0.0918132491
C  C20  1  0.34165000  0.18410000  0.69575000  1.0 -0.0918132491
C  C21  1  0.28244000  0.09740000  0.18105000  1.0 -0.082723586
C  C22  1  0.71756000  0.59740000  0.31895000  1.0 -0.082723586
C  C23  1  0.71756000  0.90260000  0.81895000  1.0 -0.0918132491
C  C24  1  0.28244000  0.40260000  0.68105000  1.0 -0.082723586
C  C25  1  0.86341000  0.98810000  0.08361000  1.0 -0.0918132491
C  C26  1  0.13659000  0.48810000  0.41639000  1.0 -0.0918132491
C  C27  1  0.13659000  0.01190000  0.91639000  1.0 -0.0918132491
C  C28  1  0.86341000  0.51190000  0.58361000  1.0 -0.0918132491
C  C29  1  0.40068000  0.36460000  0.25634000  1.0 -0.0992519843
C  C30  1  0.59932000  0.86460000  0.24366000  1.0 -0.0992519843
C  C31  1  0.59932000  0.63540000  0.74366000  1.0 -0.0992519843
C  C32  1  0.40068000  0.13540000  0.75634000  1.0 -0.0992519843
C  C33  1  0.40132000  0.19670000  0.30059000  1.0 -0.0193386051
C  C34  1  0.59868000  0.69670000  0.19941000  1.0 -0.0193386051
C  C35  1  0.59868000  0.80330000  0.69941000  1.0 -0.0193386051
C  C36  1  0.40132000  0.30330000  0.80059000  1.0 -0.0193386051
C  C37  1  0.82219000  0.20840000  0.05689000  1.0 -0.0193386051
C  C38  1  0.17781000  0.70840000  0.44311000  1.0 -0.0193386051
C  C39  1  0.17781000  0.79160000  0.94311000  1.0 -0.0193386051
C  C40  1  0.82219000  0.29160000  0.55689000  1.0 -0.0193386051
C  C41  1  0.34022000  0.98080000  0.28482000  1.0 -0.0918132491
C  C42  1  0.65978000  0.48080000  0.21518000  1.0 -0.0992519843
C  C43  1  0.65978000  0.01920000  0.71518000  1.0 -0.0992519843
C  C44  1  0.34022000  0.51920000  0.78482000  1.0 -0.0992519843
C  C45  1  0.06062000  0.10180000  0.08934000  1.0 -0.082723586
C  C46  1  0.93938000  0.60180000  0.41066000  1.0 -0.082723586
C  C47  1  0.93938000  0.89820000  0.91066000  1.0 -0.082723586
C  C48  1  0.06062000  0.39820000  0.58934000  1.0 -0.082723586
C  C49  1  0.02212000  0.32550000  0.06462000  1.0 -0.0992519843
C  C50  1  0.97788000  0.82550000  0.43538000  1.0 -0.0992519843
C  C51  1  0.97788000  0.67450000  0.93538000  1.0 -0.0992519843
C  C52  1  0.02212000  0.17450000  0.56462000  1.0 -0.0992519843
C  C53  1  0.90171000  0.37780000  0.04841000  1.0 -0.0918132491
C  C54  1  0.09829000  0.87780000  0.45159000  1.0 -0.0918132491
C  C55  1  0.09829000  0.62220000  0.95159000  1.0 -0.0918132491
C  C56  1  0.90171000  0.12220000  0.54841000  1.0 -0.0918132491
S  S1  1  0.21185000  0.02418000  0.10471000  1.0 0.9923555943
S  S2  1  0.78815000  0.52418000  0.39529000  1.0 0.9923555943
S  S3  1  0.78815000  0.97582000  0.89529000  1.0 0.9923555943
S  S4  1  0.21185000  0.47582000  0.60471000  1.0 0.9923555943
O  O1  1  0.66131000  0.48340000  0.02971000  1.0 -0.6214773116
O  O2  1  0.33869000  0.98340000  0.47029000  1.0 -0.6214773116
O  O3  1  0.33869000  0.51660000  0.97029000  1.0 -0.6214773116
O  O4  1  0.66131000  0.01660000  0.52971000  1.0 -0.6214773116
O  O5  1  0.21880000  0.76730000  0.09816000  1.0 -0.5047594366
O  O6  1  0.78120000  0.26730000  0.40184000  1.0 -0.5069587685
O  O7  1  0.78120000  0.23270000  0.90184000  1.0 -0.5069587685
O  O8  1  0.21880000  0.73270000  0.59816000  1.0 -0.5069587685
O  O9  1  0.25772000  0.18280000  0.06786000  1.0 -0.5708717761
O  O10  1  0.74228000  0.68280000  0.43214000  1.0 -0.5708717761
O  O11  1  0.74228000  0.81720000  0.93214000  1.0 -0.5708717761
O  O12  1  0.25772000  0.31720000  0.56786000  1.0 -0.5708717761
O  O13  1  0.49799000  0.46140000  0.38009000  1.0 -0.6319161263
O  O14  1  0.50201000  0.96140000  0.11991000  1.0 -0.6319161263
O  O15  1  0.50201000  0.53860000  0.61991000  1.0 -0.6319161263
O  O16  1  0.49799000  0.03860000  0.88009000  1.0 -0.6319161263
O  O17  1  0.61974000  0.09180000  0.02701000  1.0 -0.6820747909
O  O18  1  0.38026000  0.59180000  0.47299000  1.0 -0.6820747909
O  O19  1  0.38026000  0.90820000  0.97299000  1.0 -0.6820747909
O  O20  1  0.61974000  0.40820000  0.52701000  1.0 -0.6820747909
O  O21  1  0.50558000  0.06640000  0.39909000  1.0 -0.6319161263
O  O22  1  0.49442000  0.56640000  0.10091000  1.0 -0.6319161263
O  O23  1  0.49442000  0.93360000  0.60091000  1.0 -0.6319161263
O  O24  1  0.50558000  0.43360000  0.89909000  1.0 -0.6319161263
