# DDEC6 charges by PACMAN v1.1 (https://github.com/mtap-research/PACMAN-charge/)
data_ZEVYAC_ASR_pacman
_symmetry_space_group_name_H-M   'P 1'
_cell_length_a   16.57410000
_cell_length_b   16.57410000
_cell_length_c   16.57410000
_cell_angle_alpha   97.44100000
_cell_angle_beta   97.44100000
_cell_angle_gamma   137.81600000
_symmetry_Int_Tables_number   1
_chemical_formula_structural   La8SiMo12P(CO)76
_chemical_formula_sum   'La8 Si1 Mo12 P1 C76 O76'
_cell_volume   2852.51222931
_cell_formula_units_Z   1
loop_
 _symmetry_equiv_pos_site_id
 _symmetry_equiv_pos_as_xyz
  1  'x, y, z'
loop_
 _atom_site_type_symbol
 _atom_site_label
 _atom_site_symmetry_multiplicity
 _atom_site_fract_x
 _atom_site_fract_y
 _atom_site_fract_z
 _atom_site_occupancy
 _atom_site_charge
La  La1  1  0.20586000  0.54495000  0.69205000  1.0 0.5217934795
La  La2  1  0.48619000  0.79414000  0.33909000  1.0 0.5217934795
La  La3  1  0.85290000  0.51381000  0.30795000  1.0 0.5217934795
La  La4  1  0.45505000  0.14710000  0.66091000  1.0 0.5217934795
La  La5  1  0.48619000  0.14710000  0.69205000  1.0 0.5217934795
La  La6  1  0.45505000  0.79414000  0.30795000  1.0 0.5217934795
La  La7  1  0.85290000  0.54495000  0.33909000  1.0 0.5217934795
La  La8  1  0.20586000  0.51381000  0.66091000  1.0 0.5217934795
Si  Si1  1  0.00000000  0.00000000  0.00000000  1.0 0.3051759697
Mo  Mo1  1  0.97075000  0.52940000  0.55865000  1.0 1.4434592224
Mo  Mo2  1  0.58790000  0.02925000  0.55865000  1.0 1.4434592224
Mo  Mo3  1  0.97075000  0.41210000  0.44135000  1.0 1.4434592224
Mo  Mo4  1  0.47060000  0.02925000  0.44135000  1.0 1.4434592224
Mo  Mo5  1  0.24638000  0.81290000  0.72402000  1.0 1.7761643129
Mo  Mo6  1  0.47764000  0.75362000  0.56652000  1.0 1.7761643129
Mo  Mo7  1  0.08888000  0.52236000  0.27598000  1.0 1.7761643129
Mo  Mo8  1  0.18710000  0.91112000  0.43348000  1.0 1.7761643129
Mo  Mo9  1  0.47764000  0.91112000  0.72402000  1.0 1.7761643129
Mo  Mo10  1  0.18710000  0.75362000  0.27598000  1.0 1.7861234344
Mo  Mo11  1  0.08888000  0.81290000  0.56652000  1.0 1.7745979227
Mo  Mo12  1  0.24638000  0.52236000  0.43348000  1.0 1.7761643129
P  P1  1  0.25000000  0.75000000  0.50000000  1.0 1.3761949933
C  C1  1  0.62400000  0.78300000  0.92500000  1.0 -0.010283947
C  C2  1  0.30100000  0.37600000  0.15900000  1.0 -0.010283947
C  C3  1  0.85800000  0.69900000  0.07500000  1.0 -0.010283947
C  C4  1  0.21700000  0.14200000  0.84100000  1.0 -0.010283947
C  C5  1  0.30100000  0.14200000  0.92500000  1.0 -0.010283947
C  C6  1  0.21700000  0.37600000  0.07500000  1.0 -0.010283947
C  C7  1  0.85800000  0.78300000  0.15900000  1.0 -0.010283947
C  C8  1  0.62400000  0.69900000  0.84100000  1.0 -0.010283947
C  C9  1  0.75000000  0.86100000  0.97300000  1.0 -0.0474954896
C  C10  1  0.22300000  0.25000000  0.11100000  1.0 -0.0474954896
C  C11  1  0.88800000  0.77700000  0.02700000  1.0 -0.0474954896
C  C12  1  0.13900000  0.11200000  0.88900000  1.0 -0.0474954896
C  C13  1  0.22300000  0.11200000  0.97300000  1.0 -0.0474954896
C  C14  1  0.13900000  0.25000000  0.02700000  1.0 -0.0474954896
C  C15  1  0.88800000  0.86100000  0.11100000  1.0 -0.0474954896
C  C16  1  0.75000000  0.77700000  0.88900000  1.0 -0.0474954896
C  C17  1  0.80200000  0.87900000  0.84300000  1.0 -0.0215718982
C  C18  1  0.04100000  0.19800000  0.07700000  1.0 -0.0215718982
C  C19  1  0.03600000  0.95900000  0.15700000  1.0 -0.0215718982
C  C20  1  0.12100000  0.96400000  0.92300000  1.0 -0.0215718982
C  C21  1  0.04100000  0.96400000  0.84300000  1.0 -0.0215718982
C  C22  1  0.12100000  0.19800000  0.15700000  1.0 -0.0215718982
C  C23  1  0.03600000  0.87900000  0.07700000  1.0 -0.0215718982
C  C24  1  0.80200000  0.95900000  0.92300000  1.0 -0.0215718982
C  C25  1  0.67800000  0.80100000  0.79500000  1.0 -0.010283947
C  C26  1  0.11700000  0.32200000  0.12300000  1.0 -0.010283947
C  C27  1  0.00600000  0.88300000  0.20500000  1.0 -0.010283947
C  C28  1  0.19900000  0.99400000  0.87700000  1.0 -0.010283947
C  C29  1  0.11700000  0.99400000  0.79500000  1.0 -0.010283947
C  C30  1  0.19900000  0.32200000  0.20500000  1.0 -0.010283947
C  C31  1  0.00600000  0.80100000  0.12300000  1.0 -0.010283947
C  C32  1  0.67800000  0.88300000  0.87700000  1.0 -0.010283947
C  C33  1  0.45340000  0.66800000  0.78540000  1.0 0.5704082645
C  C34  1  0.33200000  0.54660000  0.21460000  1.0 0.5704082645
C  C35  1  0.88260000  0.66800000  0.21460000  1.0 0.5704082645
C  C36  1  0.33200000  0.11740000  0.78540000  1.0 0.5704082645
C  C37  1  0.83820000  0.90770000  0.93110000  1.0 -0.099578774
C  C38  1  0.09290000  0.16180000  0.06950000  1.0 -0.1064978667
C  C39  1  0.97660000  0.90710000  0.06890000  1.0 -0.099578774
C  C40  1  0.09230000  0.02340000  0.93050000  1.0 -0.1064978667
C  C41  1  0.58840000  0.75280000  0.83560000  1.0 -0.0437249341
C  C42  1  0.24720000  0.41160000  0.16440000  1.0 -0.0437249341
C  C43  1  0.91720000  0.75280000  0.16440000  1.0 -0.0437249341
C  C44  1  0.24720000  0.08280000  0.83560000  1.0 -0.0437249341
C  C45  1  0.66100000  0.86620000  0.90120000  1.0 0.0052708819
C  C46  1  0.24020000  0.33900000  0.20520000  1.0 0.0043947383
C  C47  1  0.96500000  0.75980000  0.09880000  1.0 0.0052708819
C  C48  1  0.13380000  0.03500000  0.79480000  1.0 0.0043947383
C  C49  1  0.24020000  0.03500000  0.90120000  1.0 0.0043947383
C  C50  1  0.13380000  0.33900000  0.09880000  1.0 0.0043947383
C  C51  1  0.96500000  0.86620000  0.20520000  1.0 0.0052708819
C  C52  1  0.66100000  0.75980000  0.79480000  1.0 0.0043947383
C  C53  1  0.78710000  0.94410000  0.95120000  1.0 -0.010283947
C  C54  1  0.16410000  0.21290000  0.15700000  1.0 -0.010283947
C  C55  1  0.99290000  0.83590000  0.04880000  1.0 -0.010283947
C  C56  1  0.05590000  0.00710000  0.84300000  1.0 -0.010283947
C  C57  1  0.16410000  0.00710000  0.95120000  1.0 -0.010283947
C  C58  1  0.05590000  0.21290000  0.04880000  1.0 -0.010283947
C  C59  1  0.99290000  0.94410000  0.15700000  1.0 -0.0049911492
C  C60  1  0.78710000  0.83590000  0.84300000  1.0 -0.010283947
C  C61  1  0.76000000  0.88850000  0.97050000  1.0 -0.0474954896
C  C62  1  0.21050000  0.24000000  0.12850000  1.0 -0.0474954896
C  C63  1  0.91800000  0.78950000  0.02950000  1.0 -0.0474954896
C  C64  1  0.11150000  0.08200000  0.87150000  1.0 -0.0474954896
C  C65  1  0.21050000  0.08200000  0.97050000  1.0 -0.0437249341
C  C66  1  0.11150000  0.24000000  0.02950000  1.0 -0.0474954896
C  C67  1  0.91800000  0.88850000  0.12850000  1.0 -0.0437249341
C  C68  1  0.76000000  0.78950000  0.87150000  1.0 -0.0437249341
C  C69  1  0.63840000  0.82090000  0.92130000  1.0 0.0052708819
C  C70  1  0.28290000  0.36160000  0.18250000  1.0 0.0052708819
C  C71  1  0.89960000  0.71710000  0.07870000  1.0 0.0052708819
C  C72  1  0.17910000  0.10040000  0.81750000  1.0 0.0043947383
C  C73  1  0.28290000  0.10040000  0.92130000  1.0 0.0043947383
C  C74  1  0.17910000  0.36160000  0.07870000  1.0 0.0052708819
C  C75  1  0.89960000  0.82090000  0.18250000  1.0 0.0052708819
C  C76  1  0.63840000  0.71710000  0.81750000  1.0 0.0043947383
O  O1  1  0.07720000  0.63760000  0.68520000  1.0 -0.8516892248
O  O2  1  0.60800000  0.92280000  0.56040000  1.0 -0.8516892248
O  O3  1  0.95240000  0.39200000  0.31480000  1.0 -0.8516892248
O  O4  1  0.36240000  0.04760000  0.43960000  1.0 -0.8516892248
O  O5  1  0.60800000  0.04760000  0.68520000  1.0 -0.8516892248
O  O6  1  0.36240000  0.92280000  0.31480000  1.0 -0.8516892248
O  O7  1  0.95240000  0.63760000  0.56040000  1.0 -0.8516892248
O  O8  1  0.07720000  0.39200000  0.43960000  1.0 -0.8516892248
O  O9  1  0.17660000  0.85970000  0.68310000  1.0 -0.8246340868
O  O10  1  0.50650000  0.82340000  0.68310000  1.0 -0.825217148
O  O11  1  0.17660000  0.49350000  0.31690000  1.0 -0.8246340868
O  O12  1  0.14030000  0.82340000  0.31690000  1.0 -0.8246340868
O  O13  1  0.30580000  0.74660000  0.70900000  1.0 -0.8618621432
O  O14  1  0.40320000  0.69420000  0.44080000  1.0 -0.8618621432
O  O15  1  0.03760000  0.59680000  0.29100000  1.0 -0.8618621432
O  O16  1  0.25340000  0.96240000  0.55920000  1.0 -0.8618621432
O  O17  1  0.40320000  0.96240000  0.70900000  1.0 -0.8618621432
O  O18  1  0.25340000  0.69420000  0.29100000  1.0 -0.8618621432
O  O19  1  0.03760000  0.74660000  0.44080000  1.0 -0.8618621432
O  O20  1  0.30580000  0.59680000  0.55920000  1.0 -0.8618621432
O  O21  1  0.17450000  0.73210000  0.55760000  1.0 -0.9014736616
O  O22  1  0.38310000  0.82550000  0.55760000  1.0 -0.9014736616
O  O23  1  0.17450000  0.61690000  0.44240000  1.0 -0.9014736616
O  O24  1  0.26790000  0.82550000  0.44240000  1.0 -0.9014736616
O  O25  1  0.05960000  0.49370000  0.56590000  1.0 -0.8246340868
O  O26  1  0.50630000  0.94040000  0.43410000  1.0 -0.8246340868
O  O27  1  0.92780000  0.49370000  0.43410000  1.0 -0.8246340868
O  O28  1  0.50630000  0.07220000  0.56590000  1.0 -0.8246340868
O  O29  1  0.16680000  0.41020000  0.78780000  1.0 0.1688046384
O  O30  1  0.62100000  0.83320000  0.24340000  1.0 0.1688046384
O  O31  1  0.62240000  0.37900000  0.21220000  1.0 0.1688046384
O  O32  1  0.58980000  0.37760000  0.75660000  1.0 0.1688046384
O  O33  1  0.62100000  0.37760000  0.78780000  1.0 0.1688046384
O  O34  1  0.58980000  0.83320000  0.21220000  1.0 0.1688046384
O  O35  1  0.62240000  0.41020000  0.24340000  1.0 0.1688046384
O  O36  1  0.16680000  0.37900000  0.75660000  1.0 0.1688046384
O  O37  1  0.16680000  0.59630000  0.82910000  1.0 0.1260015316
O  O38  1  0.66230000  0.83320000  0.42950000  1.0 0.123164574
O  O39  1  0.76720000  0.33770000  0.17090000  1.0 0.123164574
O  O40  1  0.40370000  0.23280000  0.57050000  1.0 0.123164574
O  O41  1  0.66230000  0.23280000  0.82910000  1.0 0.123164574
O  O42  1  0.40370000  0.83320000  0.17090000  1.0 0.123164574
O  O43  1  0.76720000  0.59630000  0.42950000  1.0 0.123164574
O  O44  1  0.16680000  0.33770000  0.57050000  1.0 0.123164574
O  O45  1  0.98060000  0.38850000  0.71110000  1.0 -0.099578774
O  O46  1  0.73050000  0.01940000  0.40790000  1.0 -0.099578774
O  O47  1  0.67740000  0.26950000  0.28890000  1.0 -0.099578774
O  O48  1  0.61150000  0.32260000  0.59210000  1.0 -0.099578774
O  O49  1  0.73050000  0.32260000  0.71110000  1.0 -0.099578774
O  O50  1  0.61150000  0.01940000  0.28890000  1.0 -0.099578774
O  O51  1  0.67740000  0.38850000  0.40790000  1.0 -0.099578774
O  O52  1  0.98060000  0.26950000  0.59210000  1.0 -0.099578774
O  O53  1  0.39770000  0.68070000  0.81680000  1.0 -0.4888137408
O  O54  1  0.41910000  0.60230000  0.28300000  1.0 -0.4888137408
O  O55  1  0.86390000  0.58090000  0.18320000  1.0 -0.4888137408
O  O56  1  0.31930000  0.13610000  0.71700000  1.0 -0.4888137408
O  O57  1  0.41910000  0.13610000  0.81680000  1.0 -0.4888137408
O  O58  1  0.31930000  0.60230000  0.18320000  1.0 -0.4888137408
O  O59  1  0.86390000  0.68070000  0.28300000  1.0 -0.4888137408
O  O60  1  0.39770000  0.58090000  0.71700000  1.0 -0.4888137408
O  O61  1  0.11630000  0.53580000  0.77210000  1.0 -0.0437249341
O  O62  1  0.65580000  0.88370000  0.41950000  1.0 -0.0437249341
O  O63  1  0.76370000  0.34420000  0.22790000  1.0 -0.0437249341
O  O64  1  0.46420000  0.23630000  0.58050000  1.0 -0.0437249341
O  O65  1  0.65580000  0.23630000  0.77210000  1.0 -0.0437249341
O  O66  1  0.46420000  0.88370000  0.22790000  1.0 -0.0474954896
O  O67  1  0.76370000  0.53580000  0.41950000  1.0 -0.0437249341
O  O68  1  0.11630000  0.34420000  0.58050000  1.0 -0.0437249341
O  O69  1  0.97180000  0.34440000  0.67220000  1.0 0.0222032744
O  O70  1  0.70040000  0.02820000  0.37260000  1.0 0.0222032744
O  O71  1  0.67220000  0.29960000  0.32780000  1.0 0.0222032744
O  O72  1  0.65560000  0.32780000  0.62740000  1.0 0.0222032744
O  O73  1  0.70040000  0.32780000  0.67220000  1.0 0.0222032744
O  O74  1  0.65560000  0.02820000  0.32780000  1.0 0.0222032744
O  O75  1  0.67220000  0.34440000  0.37260000  1.0 0.0222032744
O  O76  1  0.97180000  0.29960000  0.62740000  1.0 0.0222032744
