# DDEC6 charges by PACMAN v1.1 (https://github.com/mtap-research/PACMAN-charge/)
data_ZEXMAU_ASR_pacman
_symmetry_space_group_name_H-M   'P 1'
_cell_length_a   25.75950000
_cell_length_b   25.75950000
_cell_length_c   25.75950000
_cell_angle_alpha   100.22600000
_cell_angle_beta   100.22600000
_cell_angle_gamma   130.16200000
_symmetry_Int_Tables_number   1
_chemical_formula_structural   Zr3H42(C40O9)2
_chemical_formula_sum   'Zr6 H84 C160 O36'
_cell_volume   11846.52038267
_cell_formula_units_Z   2
loop_
 _symmetry_equiv_pos_site_id
 _symmetry_equiv_pos_as_xyz
  1  'x, y, z'
loop_
 _atom_site_type_symbol
 _atom_site_label
 _atom_site_symmetry_multiplicity
 _atom_site_fract_x
 _atom_site_fract_y
 _atom_site_fract_z
 _atom_site_occupancy
 _atom_site_charge
Zr  Zr1  1  0.88637000  0.88637000  0.00000000  1.0 2.2731878213
Zr  Zr2  1  0.11363000  0.11363000  0.00000000  1.0 2.2731878213
Zr  Zr3  1  0.93671000  0.95882000  0.89553000  1.0 2.2070609979
Zr  Zr4  1  0.06329000  0.04118000  0.10447000  1.0 2.2070609979
Zr  Zr5  1  0.04118000  0.93671000  0.97789000  1.0 2.2070609979
Zr  Zr6  1  0.95882000  0.06329000  0.02211000  1.0 2.2070609979
H  H1  1  0.90236000  0.84275000  0.90771000  1.0 0.3992703907
H  H2  1  0.71363000  0.75489000  0.75996000  1.0 0.1289888957
H  H3  1  0.59630000  0.64907000  0.69365000  1.0 0.1198044285
H  H4  1  0.54487000  0.58093000  0.81940000  1.0 0.1198044285
H  H5  1  0.66039000  0.68865000  0.88384000  1.0 0.1350202016
H  H6  1  0.35048000  0.40636000  0.57030000  1.0 0.1289888957
H  H7  1  0.25629000  0.34598000  0.38825000  1.0 0.1015187554
H  H8  1  0.22305000  0.31024000  0.29099000  1.0 0.1105430018
H  H9  1  0.07769000  0.10000000  0.27071000  1.0 0.1105430018
H  H10  1  0.12784000  0.13384000  0.36848000  1.0 0.0946156611
H  H11  1  0.93504000  0.99465000  0.09229000  1.0 0.3992703907
H  H12  1  0.99493000  0.95367000  0.24004000  1.0 0.1289888957
H  H13  1  0.95542000  0.90265000  0.30635000  1.0 0.1198044285
H  H14  1  0.76153000  0.72547000  0.18060000  1.0 0.1198044285
H  H15  1  0.80481000  0.77655000  0.11616000  1.0 0.1350202016
H  H16  1  0.83606000  0.78018000  0.42970000  1.0 0.1289888957
H  H17  1  0.95773000  0.86804000  0.61175000  1.0 0.1015187554
H  H18  1  0.01925000  0.93206000  0.70901000  1.0 0.1105430018
H  H19  1  0.82929000  0.80698000  0.72929000  1.0 0.1105430018
H  H20  1  0.76536000  0.75936000  0.63152000  1.0 0.0946156611
H  H21  1  0.99465000  0.90236000  0.05961000  1.0 0.3992703907
H  H22  1  0.95367000  0.71363000  0.95874000  1.0 0.1289888957
H  H23  1  0.90265000  0.59630000  0.94723000  1.0 0.1198044285
H  H24  1  0.72547000  0.54487000  0.96394000  1.0 0.1198044285
H  H25  1  0.77655000  0.66039000  0.97174000  1.0 0.1350202016
H  H26  1  0.78018000  0.35048000  0.94412000  1.0 0.1289888957
H  H27  1  0.86804000  0.25629000  0.91031000  1.0 0.1015187554
H  H28  1  0.93206000  0.22305000  0.91281000  1.0 0.1105430018
H  H29  1  0.80698000  0.07769000  0.97769000  1.0 0.1105430018
H  H30  1  0.75936000  0.12784000  0.99400000  1.0 0.0946156611
H  H31  1  0.84275000  0.93504000  0.94039000  1.0 0.3992703907
H  H32  1  0.75489000  0.99493000  0.04126000  1.0 0.1289888957
H  H33  1  0.64907000  0.95542000  0.05277000  1.0 0.1198044285
H  H34  1  0.58093000  0.76153000  0.03606000  1.0 0.1198044285
H  H35  1  0.68865000  0.80481000  0.02826000  1.0 0.1350202016
H  H36  1  0.40636000  0.83606000  0.05588000  1.0 0.1289888957
H  H37  1  0.34598000  0.95773000  0.08969000  1.0 0.1015187554
H  H38  1  0.31024000  0.01925000  0.08719000  1.0 0.1105430018
H  H39  1  0.10000000  0.82929000  0.02231000  1.0 0.1105430018
H  H40  1  0.13384000  0.76536000  0.00600000  1.0 0.0946156611
H  H41  1  0.09764000  0.15725000  0.09229000  1.0 0.3992703907
H  H42  1  0.28637000  0.24511000  0.24004000  1.0 0.1289888957
H  H43  1  0.40370000  0.35093000  0.30635000  1.0 0.1198044285
H  H44  1  0.45513000  0.41907000  0.18060000  1.0 0.1198044285
H  H45  1  0.33961000  0.31135000  0.11616000  1.0 0.1350202016
H  H46  1  0.64952000  0.59364000  0.42970000  1.0 0.1289888957
H  H47  1  0.74371000  0.65402000  0.61175000  1.0 0.1015187554
H  H48  1  0.77695000  0.68976000  0.70901000  1.0 0.1105430018
H  H49  1  0.92231000  0.90000000  0.72929000  1.0 0.1105430018
H  H50  1  0.87216000  0.86616000  0.63152000  1.0 0.0946156611
H  H51  1  0.06496000  0.00535000  0.90771000  1.0 0.3992703907
H  H52  1  0.00507000  0.04633000  0.75996000  1.0 0.1289888957
H  H53  1  0.04458000  0.09735000  0.69365000  1.0 0.1198044285
H  H54  1  0.23847000  0.27453000  0.81940000  1.0 0.1198044285
H  H55  1  0.19519000  0.22345000  0.88384000  1.0 0.1350202016
H  H56  1  0.16394000  0.21982000  0.57030000  1.0 0.1289888957
H  H57  1  0.04227000  0.13196000  0.38825000  1.0 0.1015187554
H  H58  1  0.98075000  0.06794000  0.29099000  1.0 0.1105430018
H  H59  1  0.17071000  0.19302000  0.27071000  1.0 0.1105430018
H  H60  1  0.23464000  0.24064000  0.36848000  1.0 0.0946156611
H  H61  1  0.00535000  0.09764000  0.94039000  1.0 0.3992703907
H  H62  1  0.04633000  0.28637000  0.04126000  1.0 0.1289888957
H  H63  1  0.09735000  0.40370000  0.05277000  1.0 0.1198044285
H  H64  1  0.27453000  0.45513000  0.03606000  1.0 0.1198044285
H  H65  1  0.22345000  0.33961000  0.02826000  1.0 0.1350202016
H  H66  1  0.21982000  0.64952000  0.05588000  1.0 0.1289888957
H  H67  1  0.13196000  0.74371000  0.08969000  1.0 0.1015187554
H  H68  1  0.06794000  0.77695000  0.08719000  1.0 0.1105430018
H  H69  1  0.19302000  0.92231000  0.02231000  1.0 0.1105430018
H  H70  1  0.24064000  0.87216000  0.00600000  1.0 0.0946156611
H  H71  1  0.15725000  0.06496000  0.05961000  1.0 0.3992703907
H  H72  1  0.24511000  0.00507000  0.95874000  1.0 0.1289888957
H  H73  1  0.35093000  0.04458000  0.94723000  1.0 0.1198044285
H  H74  1  0.41907000  0.23847000  0.96394000  1.0 0.1198044285
H  H75  1  0.31135000  0.19519000  0.97174000  1.0 0.1350202016
H  H76  1  0.59364000  0.16394000  0.94412000  1.0 0.1289888957
H  H77  1  0.65402000  0.04227000  0.91031000  1.0 0.1015187554
H  H78  1  0.68976000  0.98075000  0.91281000  1.0 0.1105430018
H  H79  1  0.90000000  0.17071000  0.97769000  1.0 0.1105430018
H  H80  1  0.86616000  0.23464000  0.99400000  1.0 0.0946156611
H  H81  1  0.33660000  0.38105000  0.71765000  1.0 0.1105430018
H  H82  1  0.66340000  0.61895000  0.28235000  1.0 0.1105430018
H  H83  1  0.61895000  0.33660000  0.95555000  1.0 0.1105430018
H  H84  1  0.38105000  0.66340000  0.04445000  1.0 0.1105430018
C  C1  1  0.77378000  0.80100000  0.87078000  1.0 0.6131411172
C  C2  1  0.69912000  0.73210000  0.82762000  1.0 -0.0201879068
C  C3  1  0.67960000  0.71960000  0.77220000  1.0 -0.0998549568
C  C4  1  0.60970000  0.65530000  0.73180000  1.0 -0.1505615318
C  C5  1  0.56040000  0.60080000  0.74960000  1.0 0.1289888957
C  C6  1  0.57890000  0.61500000  0.80650000  1.0 -0.1447312078
C  C7  1  0.64810000  0.68000000  0.84510000  1.0 -0.1083593884
C  C8  1  0.48690000  0.53180000  0.70910000  1.0 -0.0902333533
C  C9  1  0.42610000  0.47690000  0.67920000  1.0 -0.0902333533
C  C10  1  0.35380000  0.40610000  0.64810000  1.0 0.1289888957
C  C11  1  0.32340000  0.37890000  0.59010000  1.0 -0.1916023758
C  C12  1  0.19060000  0.24340000  0.38860000  1.0 0.0377492137
C  C13  1  0.22160000  0.29620000  0.36480000  1.0 -0.1505615318
C  C14  1  0.20050000  0.27430000  0.30620000  1.0 -0.1916023758
C  C15  1  0.14760000  0.20160000  0.26940000  1.0 -0.0807282835
C  C16  1  0.11680000  0.14960000  0.29440000  1.0 -0.0106976659
C  C17  1  0.14240000  0.16920000  0.35320000  1.0 -0.0106976659
C  C18  1  0.12650000  0.18030000  0.20760000  1.0 0.3594620317
C  C19  1  0.93022000  0.90300000  0.12922000  1.0 0.6131411172
C  C20  1  0.90448000  0.87150000  0.17238000  1.0 -0.0201879068
C  C21  1  0.94740000  0.90740000  0.22780000  1.0 -0.0998549568
C  C22  1  0.92350000  0.87790000  0.26820000  1.0 -0.1505615318
C  C23  1  0.85120000  0.81080000  0.25040000  1.0 0.1289888957
C  C24  1  0.80850000  0.77240000  0.19350000  1.0 -0.1447312078
C  C25  1  0.83490000  0.80300000  0.15490000  1.0 -0.1083593884
C  C26  1  0.82270000  0.77780000  0.29090000  1.0 -0.0902333533
C  C27  1  0.79770000  0.74690000  0.32080000  1.0 -0.0902333533
C  C28  1  0.75800000  0.70570000  0.35190000  1.0 0.1289888957
C  C29  1  0.78880000  0.73330000  0.40990000  1.0 -0.1916023758
C  C30  1  0.85480000  0.80200000  0.61140000  1.0 0.0377492137
C  C31  1  0.93140000  0.85680000  0.63520000  1.0 -0.1505615318
C  C32  1  0.96810000  0.89430000  0.69380000  1.0 -0.1916023758
C  C33  1  0.93220000  0.87820000  0.73060000  1.0 -0.0807282835
C  C34  1  0.85520000  0.82240000  0.70560000  1.0 -0.0106976659
C  C35  1  0.81600000  0.78920000  0.64680000  1.0 -0.0106976659
C  C36  1  0.97270000  0.91890000  0.79240000  1.0 0.3594620317
C  C37  1  0.90300000  0.77378000  0.97278000  1.0 0.6131411172
C  C38  1  0.87150000  0.69912000  0.96702000  1.0 -0.0201879068
C  C39  1  0.90740000  0.67960000  0.96000000  1.0 -0.0998549568
C  C40  1  0.87790000  0.60970000  0.95440000  1.0 -0.1505615318
C  C41  1  0.81080000  0.56040000  0.95960000  1.0 0.1289888957
C  C42  1  0.77240000  0.57890000  0.96390000  1.0 -0.1447312078
C  C43  1  0.80300000  0.64810000  0.96810000  1.0 -0.1083593884
C  C44  1  0.77780000  0.48690000  0.95510000  1.0 -0.0902333533
C  C45  1  0.74690000  0.42610000  0.94920000  1.0 -0.0902333533
C  C46  1  0.70570000  0.35380000  0.94770000  1.0 0.1289888957
C  C47  1  0.73330000  0.32340000  0.94450000  1.0 -0.1916023758
C  C48  1  0.80200000  0.19060000  0.94720000  1.0 0.0377492137
C  C49  1  0.85680000  0.22160000  0.92540000  1.0 -0.1505615318
C  C50  1  0.89430000  0.20050000  0.92620000  1.0 -0.1916023758
C  C51  1  0.87820000  0.14760000  0.94600000  1.0 -0.0807282835
C  C52  1  0.82240000  0.11680000  0.96720000  1.0 -0.0106976659
C  C53  1  0.78920000  0.14240000  0.97320000  1.0 -0.0106976659
C  C54  1  0.91890000  0.12650000  0.94620000  1.0 0.3594620317
C  C55  1  0.80100000  0.93022000  0.02722000  1.0 0.6131411172
C  C56  1  0.73210000  0.90448000  0.03298000  1.0 -0.0201879068
C  C57  1  0.71960000  0.94740000  0.04000000  1.0 -0.0998549568
C  C58  1  0.65530000  0.92350000  0.04560000  1.0 -0.1505615318
C  C59  1  0.60080000  0.85120000  0.04040000  1.0 0.1289888957
C  C60  1  0.61500000  0.80850000  0.03610000  1.0 -0.1505615318
C  C61  1  0.68000000  0.83490000  0.03190000  1.0 -0.1083593884
C  C62  1  0.53180000  0.82270000  0.04490000  1.0 -0.0902333533
C  C63  1  0.47690000  0.79770000  0.05080000  1.0 -0.0902333533
C  C64  1  0.40610000  0.75800000  0.05230000  1.0 0.1289888957
C  C65  1  0.37890000  0.78880000  0.05550000  1.0 -0.1916023758
C  C66  1  0.24340000  0.85480000  0.05280000  1.0 0.0377492137
C  C67  1  0.29620000  0.93140000  0.07460000  1.0 -0.1505615318
C  C68  1  0.27430000  0.96810000  0.07380000  1.0 -0.1916023758
C  C69  1  0.20160000  0.93220000  0.05400000  1.0 -0.0807282835
C  C70  1  0.14960000  0.85520000  0.03280000  1.0 -0.0106976659
C  C71  1  0.16920000  0.81600000  0.02680000  1.0 -0.0106976659
C  C72  1  0.18030000  0.97270000  0.05380000  1.0 0.3594620317
C  C73  1  0.22622000  0.19900000  0.12922000  1.0 0.6131411172
C  C74  1  0.30088000  0.26790000  0.17238000  1.0 -0.0201879068
C  C75  1  0.32040000  0.28040000  0.22780000  1.0 -0.0998549568
C  C76  1  0.39030000  0.34470000  0.26820000  1.0 -0.1505615318
C  C77  1  0.43960000  0.39920000  0.25040000  1.0 0.1289888957
C  C78  1  0.42110000  0.38500000  0.19350000  1.0 -0.1447312078
C  C79  1  0.35190000  0.32000000  0.15490000  1.0 -0.1083593884
C  C80  1  0.51310000  0.46820000  0.29090000  1.0 -0.0902333533
C  C81  1  0.57390000  0.52310000  0.32080000  1.0 -0.0902333533
C  C82  1  0.64620000  0.59390000  0.35190000  1.0 0.1289888957
C  C83  1  0.67660000  0.62110000  0.40990000  1.0 -0.1916023758
C  C84  1  0.80940000  0.75660000  0.61140000  1.0 0.0377492137
C  C85  1  0.77840000  0.70380000  0.63520000  1.0 -0.1505615318
C  C86  1  0.79950000  0.72570000  0.69380000  1.0 -0.1916023758
C  C87  1  0.85240000  0.79840000  0.73060000  1.0 -0.0807282835
C  C88  1  0.88320000  0.85040000  0.70560000  1.0 -0.0106976659
C  C89  1  0.85760000  0.83080000  0.64680000  1.0 -0.0106976659
C  C90  1  0.87350000  0.81970000  0.79240000  1.0 0.3594620317
C  C91  1  0.06978000  0.09700000  0.87078000  1.0 0.6131411172
C  C92  1  0.09552000  0.12850000  0.82762000  1.0 -0.0201879068
C  C93  1  0.05260000  0.09260000  0.77220000  1.0 -0.0998549568
C  C94  1  0.07650000  0.12210000  0.73180000  1.0 -0.1505615318
C  C95  1  0.14880000  0.18920000  0.74960000  1.0 0.1289888957
C  C96  1  0.19150000  0.22760000  0.80650000  1.0 -0.1447312078
C  C97  1  0.16510000  0.19700000  0.84510000  1.0 -0.1083593884
C  C98  1  0.17730000  0.22220000  0.70910000  1.0 -0.0902333533
C  C99  1  0.20230000  0.25310000  0.67920000  1.0 -0.0902333533
C  C100  1  0.24200000  0.29430000  0.64810000  1.0 0.1289888957
C  C101  1  0.21120000  0.26670000  0.59010000  1.0 -0.1916023758
C  C102  1  0.14520000  0.19800000  0.38860000  1.0 0.0377492137
C  C103  1  0.06860000  0.14320000  0.36480000  1.0 -0.1505615318
C  C104  1  0.03190000  0.10570000  0.30620000  1.0 -0.1916023758
C  C105  1  0.06780000  0.12180000  0.26940000  1.0 -0.0807282835
C  C106  1  0.14480000  0.17760000  0.29440000  1.0 -0.0106976659
C  C107  1  0.18400000  0.21080000  0.35320000  1.0 -0.0106976659
C  C108  1  0.02730000  0.08110000  0.20760000  1.0 0.3594620317
C  C109  1  0.09700000  0.22622000  0.02722000  1.0 0.6131411172
C  C110  1  0.12850000  0.30088000  0.03298000  1.0 -0.0201879068
C  C111  1  0.09260000  0.32040000  0.04000000  1.0 -0.0998549568
C  C112  1  0.12210000  0.39030000  0.04560000  1.0 -0.1505615318
C  C113  1  0.18920000  0.43960000  0.04040000  1.0 0.1289888957
C  C114  1  0.22760000  0.42110000  0.03610000  1.0 -0.1447312078
C  C115  1  0.19700000  0.35190000  0.03190000  1.0 -0.1083593884
C  C116  1  0.22220000  0.51310000  0.04490000  1.0 -0.0902333533
C  C117  1  0.25310000  0.57390000  0.05080000  1.0 -0.0902333533
C  C118  1  0.29430000  0.64620000  0.05230000  1.0 0.1289888957
C  C119  1  0.26670000  0.67660000  0.05550000  1.0 -0.1916023758
C  C120  1  0.19800000  0.80940000  0.05280000  1.0 0.0377492137
C  C121  1  0.14320000  0.77840000  0.07460000  1.0 -0.1505615318
C  C122  1  0.10570000  0.79950000  0.07380000  1.0 -0.1916023758
C  C123  1  0.12180000  0.85240000  0.05400000  1.0 -0.0807282835
C  C124  1  0.17760000  0.88320000  0.03280000  1.0 -0.0106976659
C  C125  1  0.21080000  0.85760000  0.02680000  1.0 -0.0106976659
C  C126  1  0.08110000  0.87350000  0.05380000  1.0 0.3594620317
C  C127  1  0.19900000  0.06978000  0.97278000  1.0 0.6131411172
C  C128  1  0.26790000  0.09552000  0.96702000  1.0 -0.0201879068
C  C129  1  0.28040000  0.05260000  0.96000000  1.0 -0.0998549568
C  C130  1  0.34470000  0.07650000  0.95440000  1.0 -0.1505615318
C  C131  1  0.39920000  0.14880000  0.95960000  1.0 0.1289888957
C  C132  1  0.38500000  0.19150000  0.96390000  1.0 -0.1447312078
C  C133  1  0.32000000  0.16510000  0.96810000  1.0 -0.1083593884
C  C134  1  0.46820000  0.17730000  0.95510000  1.0 -0.0902333533
C  C135  1  0.52310000  0.20230000  0.94920000  1.0 -0.0902333533
C  C136  1  0.59390000  0.24200000  0.94770000  1.0 0.1289888957
C  C137  1  0.62110000  0.21120000  0.94450000  1.0 -0.1916023758
C  C138  1  0.75660000  0.14520000  0.94720000  1.0 0.0377492137
C  C139  1  0.70380000  0.06860000  0.92540000  1.0 -0.1505615318
C  C140  1  0.72570000  0.03190000  0.92620000  1.0 -0.1916023758
C  C141  1  0.79840000  0.06780000  0.94600000  1.0 -0.0807282835
C  C142  1  0.85040000  0.14480000  0.96720000  1.0 -0.0106976659
C  C143  1  0.83080000  0.18400000  0.97320000  1.0 -0.0106976659
C  C144  1  0.81970000  0.02730000  0.94620000  1.0 0.3594620317
C  C145  1  0.31460000  0.36350000  0.67810000  1.0 -0.2124806271
C  C146  1  0.25080000  0.30890000  0.55970000  1.0 0.1503362074
C  C147  1  0.21880000  0.27830000  0.49710000  1.0 -0.2124806271
C  C148  1  0.19500000  0.25370000  0.44870000  1.0 -0.0610771993
C  C149  1  0.68540000  0.63650000  0.32190000  1.0 -0.2124806271
C  C150  1  0.74920000  0.69110000  0.44030000  1.0 0.1503362074
C  C151  1  0.78120000  0.72170000  0.50290000  1.0 -0.2166699715
C  C152  1  0.80500000  0.74630000  0.55130000  1.0 -0.0610771993
C  C153  1  0.63650000  0.31460000  0.95110000  1.0 -0.2124806271
C  C154  1  0.69110000  0.25080000  0.94190000  1.0 0.1503362074
C  C155  1  0.72170000  0.21880000  0.94050000  1.0 -0.2124806271
C  C156  1  0.74630000  0.19500000  0.94130000  1.0 -0.0610771993
C  C157  1  0.36350000  0.68540000  0.04890000  1.0 -0.2124806271
C  C158  1  0.30890000  0.74920000  0.05810000  1.0 0.1503362074
C  C159  1  0.27830000  0.78120000  0.05950000  1.0 -0.2124806271
C  C160  1  0.25370000  0.80500000  0.05870000  1.0 -0.0610771993
O  O1  1  0.93349000  0.89252000  0.93643000  1.0 -1.0708117284
O  O2  1  0.78707000  0.80330000  0.92089000  1.0 -0.602408088
O  O3  1  0.81626000  0.84892000  0.85348000  1.0 -0.602408088
O  O4  1  0.14780000  0.22440000  0.18460000  1.0 -0.3585396432
O  O5  1  0.95609000  0.99706000  0.06357000  1.0 -1.0708117284
O  O6  1  0.88241000  0.86618000  0.07911000  1.0 -0.602408088
O  O7  1  0.99544000  0.96278000  0.14652000  1.0 -0.602408088
O  O8  1  0.03980000  0.96320000  0.81540000  1.0 -0.3585396432
O  O9  1  0.99706000  0.93349000  0.04097000  1.0 -1.0708117284
O  O10  1  0.86618000  0.78707000  0.98377000  1.0 -0.602408088
O  O11  1  0.96278000  0.81626000  0.96734000  1.0 -0.602408088
O  O12  1  0.96320000  0.14780000  0.92340000  1.0 -0.3585396432
O  O13  1  0.89252000  0.95609000  0.95903000  1.0 -1.0708117284
O  O14  1  0.80330000  0.88241000  0.01623000  1.0 -0.602408088
O  O15  1  0.84892000  0.99544000  0.03266000  1.0 -0.602408088
O  O16  1  0.22440000  0.03980000  0.07660000  1.0 -0.3585396432
O  O17  1  0.06651000  0.10748000  0.06357000  1.0 -1.0708117284
O  O18  1  0.21293000  0.19670000  0.07911000  1.0 -0.602408088
O  O19  1  0.18374000  0.15108000  0.14652000  1.0 -0.602408088
O  O20  1  0.85220000  0.77560000  0.81540000  1.0 -0.3585396432
O  O21  1  0.04391000  0.00294000  0.93643000  1.0 -1.0708117284
O  O22  1  0.11759000  0.13382000  0.92089000  1.0 -0.602408088
O  O23  1  0.00456000  0.03722000  0.85348000  1.0 -0.602408088
O  O24  1  0.96020000  0.03680000  0.18460000  1.0 -0.3585396432
O  O25  1  0.00294000  0.06651000  0.95903000  1.0 -1.0708117284
O  O26  1  0.13382000  0.21293000  0.01623000  1.0 -0.602408088
O  O27  1  0.03722000  0.18374000  0.03266000  1.0 -0.602408088
O  O28  1  0.03680000  0.85220000  0.07660000  1.0 -0.3585396432
O  O29  1  0.10748000  0.04391000  0.04097000  1.0 -1.0708117284
O  O30  1  0.19670000  0.11759000  0.98377000  1.0 -0.602408088
O  O31  1  0.15108000  0.00456000  0.96734000  1.0 -0.602408088
O  O32  1  0.77560000  0.96020000  0.92340000  1.0 -0.3585396432
O  O33  1  0.07530000  0.10380000  0.17910000  1.0 -0.602408088
O  O34  1  0.92470000  0.89620000  0.82090000  1.0 -0.602408088
O  O35  1  0.89620000  0.07530000  0.97150000  1.0 -0.602408088
O  O36  1  0.10380000  0.92470000  0.02850000  1.0 -0.602408088
