# DDEC6 charges by PACMAN v1.1 (https://github.com/mtap-research/PACMAN-charge/)
data_ZEXSOM_ASR_pacman
_symmetry_space_group_name_H-M   'P 1'
_cell_length_a   18.04150000
_cell_length_b   18.04150000
_cell_length_c   24.23000000
_cell_angle_alpha   90.00000000
_cell_angle_beta   90.00000000
_cell_angle_gamma   114.74500000
_symmetry_Int_Tables_number   1
_chemical_formula_structural   Er4Si3H32(C25O8)4
_chemical_formula_sum   'Er8 Si6 H64 C200 O64'
_cell_volume   7162.59659889
_cell_formula_units_Z   2
loop_
 _symmetry_equiv_pos_site_id
 _symmetry_equiv_pos_as_xyz
  1  'x, y, z'
loop_
 _atom_site_type_symbol
 _atom_site_label
 _atom_site_symmetry_multiplicity
 _atom_site_fract_x
 _atom_site_fract_y
 _atom_site_fract_z
 _atom_site_occupancy
 _atom_site_charge
Er  Er1  1  0.98657000  0.37553000  0.50000000  1.0 2.0901065686
Er  Er2  1  0.01343000  0.62447000  0.50000000  1.0 2.0901065686
Er  Er3  1  0.62447000  0.01343000  0.00000000  1.0 2.0901065686
Er  Er4  1  0.37553000  0.98657000  0.00000000  1.0 2.0901065686
Er  Er5  1  0.23043000  0.31843000  0.50000000  1.0 1.588821105
Er  Er6  1  0.76957000  0.68157000  0.50000000  1.0 1.588821105
Er  Er7  1  0.68157000  0.76957000  0.00000000  1.0 1.588821105
Er  Er8  1  0.31843000  0.23043000  0.00000000  1.0 1.588821105
Si  Si1  1  0.61646000  0.38354000  0.25000000  1.0 0.5437412479
Si  Si2  1  0.38354000  0.61646000  0.25000000  1.0 0.5437412479
Si  Si3  1  0.38354000  0.61646000  0.75000000  1.0 0.5437412479
Si  Si4  1  0.61646000  0.38354000  0.75000000  1.0 0.5437412479
Si  Si5  1  0.00000000  0.00000000  0.25000000  1.0 0.6095676937
Si  Si6  1  0.00000000  0.00000000  0.75000000  1.0 0.6095676937
H  H1  1  0.72780000  0.52500000  0.30920000  1.0 0.1068378811
H  H2  1  0.27220000  0.47500000  0.30920000  1.0 0.1068378811
H  H3  1  0.47500000  0.27220000  0.19080000  1.0 0.1068378811
H  H4  1  0.52500000  0.72780000  0.19080000  1.0 0.1068378811
H  H5  1  0.27220000  0.47500000  0.69080000  1.0 0.1068378811
H  H6  1  0.72780000  0.52500000  0.69080000  1.0 0.1068378811
H  H7  1  0.52500000  0.72780000  0.80920000  1.0 0.1068378811
H  H8  1  0.47500000  0.27220000  0.80920000  1.0 0.1068378811
H  H9  1  0.70420000  0.29480000  0.30240000  1.0 0.1068378811
H  H10  1  0.29580000  0.70520000  0.30240000  1.0 0.1068378811
H  H11  1  0.70520000  0.29580000  0.19760000  1.0 0.1068378811
H  H12  1  0.29480000  0.70420000  0.19760000  1.0 0.1068378811
H  H13  1  0.29580000  0.70520000  0.69760000  1.0 0.1068378811
H  H14  1  0.70420000  0.29480000  0.69760000  1.0 0.1068378811
H  H15  1  0.29480000  0.70420000  0.80240000  1.0 0.1068378811
H  H16  1  0.70520000  0.29580000  0.80240000  1.0 0.1068378811
H  H17  1  0.80580000  0.32540000  0.36950000  1.0 0.1177450946
H  H18  1  0.19420000  0.67460000  0.36950000  1.0 0.1177450946
H  H19  1  0.67460000  0.19420000  0.13050000  1.0 0.1177450946
H  H20  1  0.32540000  0.80580000  0.13050000  1.0 0.1177450946
H  H21  1  0.19420000  0.67460000  0.63050000  1.0 0.1177450946
H  H22  1  0.80580000  0.32540000  0.63050000  1.0 0.1177450946
H  H23  1  0.32540000  0.80580000  0.86950000  1.0 0.1177450946
H  H24  1  0.67460000  0.19420000  0.86950000  1.0 0.1177450946
H  H25  1  0.83000000  0.55640000  0.37310000  1.0 0.1177450946
H  H26  1  0.17000000  0.44360000  0.37310000  1.0 0.1177450946
H  H27  1  0.44360000  0.17000000  0.12690000  1.0 0.1177450946
H  H28  1  0.55640000  0.83000000  0.12690000  1.0 0.1177450946
H  H29  1  0.17000000  0.44360000  0.62690000  1.0 0.1177450946
H  H30  1  0.83000000  0.55640000  0.62690000  1.0 0.1177450946
H  H31  1  0.55640000  0.83000000  0.87310000  1.0 0.1177450946
H  H32  1  0.44360000  0.17000000  0.87310000  1.0 0.1177450946
H  H33  1  0.14070000  0.12930000  0.30150000  1.0 0.1008222165
H  H34  1  0.85930000  0.87070000  0.30150000  1.0 0.1008222165
H  H35  1  0.87070000  0.85930000  0.19850000  1.0 0.1008222165
H  H36  1  0.12930000  0.14070000  0.19850000  1.0 0.1008222165
H  H37  1  0.85930000  0.87070000  0.69850000  1.0 0.1008222165
H  H38  1  0.14070000  0.12930000  0.69850000  1.0 0.1008222165
H  H39  1  0.12930000  0.14070000  0.80150000  1.0 0.1008222165
H  H40  1  0.87070000  0.85930000  0.80150000  1.0 0.1008222165
H  H41  1  0.90180000  0.07320000  0.30490000  1.0 0.1008222165
H  H42  1  0.09820000  0.92680000  0.30490000  1.0 0.1008222165
H  H43  1  0.92680000  0.09820000  0.19510000  1.0 0.1008222165
H  H44  1  0.07320000  0.90180000  0.19510000  1.0 0.1008222165
H  H45  1  0.09820000  0.92680000  0.69510000  1.0 0.1008222165
H  H46  1  0.90180000  0.07320000  0.69510000  1.0 0.1008222165
H  H47  1  0.07320000  0.90180000  0.80490000  1.0 0.1008222165
H  H48  1  0.92680000  0.09820000  0.80490000  1.0 0.1008222165
H  H49  1  0.92420000  0.17260000  0.37200000  1.0 0.1177450946
H  H50  1  0.07580000  0.82740000  0.37200000  1.0 0.1177450946
H  H51  1  0.82740000  0.07580000  0.12800000  1.0 0.1177450946
H  H52  1  0.17260000  0.92420000  0.12800000  1.0 0.1177450946
H  H53  1  0.07580000  0.82740000  0.62800000  1.0 0.1177450946
H  H54  1  0.92420000  0.17260000  0.62800000  1.0 0.1177450946
H  H55  1  0.17260000  0.92420000  0.87200000  1.0 0.1177450946
H  H56  1  0.82740000  0.07580000  0.87200000  1.0 0.1177450946
H  H57  1  0.16360000  0.23280000  0.36640000  1.0 0.1008222165
H  H58  1  0.83640000  0.76720000  0.36640000  1.0 0.1008222165
H  H59  1  0.76720000  0.83640000  0.13360000  1.0 0.1008222165
H  H60  1  0.23280000  0.16360000  0.13360000  1.0 0.1008222165
H  H61  1  0.83640000  0.76720000  0.63360000  1.0 0.1008222165
H  H62  1  0.16360000  0.23280000  0.63360000  1.0 0.1008222165
H  H63  1  0.23280000  0.16360000  0.86640000  1.0 0.1008222165
H  H64  1  0.76720000  0.83640000  0.86640000  1.0 0.1008222165
C  C1  1  0.70695000  0.40693000  0.29673000  1.0 -0.1799053184
C  C2  1  0.29305000  0.59307000  0.29673000  1.0 -0.1799053184
C  C3  1  0.59307000  0.29305000  0.20327000  1.0 -0.1799053184
C  C4  1  0.40693000  0.70695000  0.20327000  1.0 -0.1799053184
C  C5  1  0.29305000  0.59307000  0.70327000  1.0 -0.1799053184
C  C6  1  0.70695000  0.40693000  0.70327000  1.0 -0.1799053184
C  C7  1  0.40693000  0.70695000  0.79673000  1.0 -0.1799053184
C  C8  1  0.59307000  0.29305000  0.79673000  1.0 -0.1799053184
C  C9  1  0.74428000  0.48492000  0.32025000  1.0 -0.092094742
C  C10  1  0.25572000  0.51508000  0.32025000  1.0 -0.0831572563
C  C11  1  0.51508000  0.25572000  0.17975000  1.0 -0.092094742
C  C12  1  0.48492000  0.74428000  0.17975000  1.0 -0.092094742
C  C13  1  0.25572000  0.51508000  0.67975000  1.0 -0.0831572563
C  C14  1  0.74428000  0.48492000  0.67975000  1.0 -0.092094742
C  C15  1  0.48492000  0.74428000  0.82025000  1.0 -0.092094742
C  C16  1  0.51508000  0.25572000  0.82025000  1.0 -0.092094742
C  C17  1  0.72952000  0.34748000  0.31623000  1.0 -0.1021704492
C  C18  1  0.27048000  0.65252000  0.31623000  1.0 -0.1021704492
C  C19  1  0.65252000  0.27048000  0.18377000  1.0 -0.1021704492
C  C20  1  0.34748000  0.72952000  0.18377000  1.0 -0.1021704492
C  C21  1  0.27048000  0.65252000  0.68377000  1.0 -0.1021704492
C  C22  1  0.72952000  0.34748000  0.68377000  1.0 -0.1021704492
C  C23  1  0.34748000  0.72952000  0.81623000  1.0 -0.1021704492
C  C24  1  0.65252000  0.27048000  0.81623000  1.0 -0.1021704492
C  C25  1  0.79075000  0.36585000  0.35697000  1.0 -0.092094742
C  C26  1  0.20925000  0.63415000  0.35697000  1.0 -0.092094742
C  C27  1  0.63415000  0.20925000  0.14303000  1.0 -0.092094742
C  C28  1  0.36585000  0.79075000  0.14303000  1.0 -0.092094742
C  C29  1  0.20925000  0.63415000  0.64303000  1.0 -0.092094742
C  C30  1  0.79075000  0.36585000  0.64303000  1.0 -0.092094742
C  C31  1  0.36585000  0.79075000  0.85697000  1.0 -0.092094742
C  C32  1  0.63415000  0.20925000  0.85697000  1.0 -0.092094742
C  C33  1  0.80480000  0.50360000  0.35934000  1.0 -0.0831572563
C  C34  1  0.19520000  0.49640000  0.35934000  1.0 -0.0831572563
C  C35  1  0.49640000  0.19520000  0.14066000  1.0 -0.0831572563
C  C36  1  0.50360000  0.80480000  0.14066000  1.0 -0.0831572563
C  C37  1  0.19520000  0.49640000  0.64066000  1.0 -0.0831572563
C  C38  1  0.80480000  0.50360000  0.64066000  1.0 -0.0831572563
C  C39  1  0.50360000  0.80480000  0.85934000  1.0 -0.0831572563
C  C40  1  0.49640000  0.19520000  0.85934000  1.0 -0.0831572563
C  C41  1  0.82841000  0.44439000  0.37837000  1.0 -0.0476382642
C  C42  1  0.17159000  0.55561000  0.37837000  1.0 -0.0476382642
C  C43  1  0.55561000  0.17159000  0.12163000  1.0 -0.0476382642
C  C44  1  0.44439000  0.82841000  0.12163000  1.0 -0.0476382642
C  C45  1  0.17159000  0.55561000  0.62163000  1.0 -0.0476382642
C  C46  1  0.82841000  0.44439000  0.62163000  1.0 -0.0476382642
C  C47  1  0.44439000  0.82841000  0.87837000  1.0 -0.0476382642
C  C48  1  0.55561000  0.17159000  0.87837000  1.0 -0.0476382642
C  C49  1  0.89029000  0.46351000  0.42273000  1.0 0.6552652338
C  C50  1  0.10971000  0.53649000  0.42273000  1.0 0.6552652338
C  C51  1  0.53649000  0.10971000  0.07727000  1.0 0.6552652338
C  C52  1  0.46351000  0.89029000  0.07727000  1.0 0.6552652338
C  C53  1  0.10971000  0.53649000  0.57727000  1.0 0.6552652338
C  C54  1  0.89029000  0.46351000  0.57727000  1.0 0.6552652338
C  C55  1  0.46351000  0.89029000  0.92273000  1.0 0.6552652338
C  C56  1  0.53649000  0.10971000  0.92273000  1.0 0.6552652338
C  C57  1  0.63416000  0.47224000  0.20319000  1.0 -0.0831572563
C  C58  1  0.36584000  0.52776000  0.20319000  1.0 -0.0831572563
C  C59  1  0.52776000  0.36584000  0.29681000  1.0 -0.0831572563
C  C60  1  0.47224000  0.63416000  0.29681000  1.0 -0.0831572563
C  C61  1  0.36584000  0.52776000  0.79681000  1.0 -0.0831572563
C  C62  1  0.63416000  0.47224000  0.79681000  1.0 -0.0831572563
C  C63  1  0.47224000  0.63416000  0.70319000  1.0 -0.0831572563
C  C64  1  0.52776000  0.36584000  0.70319000  1.0 -0.0831572563
C  C65  1  0.56580000  0.48840000  0.18220000  1.0 -0.0615603697
C  C66  1  0.43420000  0.51160000  0.18220000  1.0 -0.0615603697
C  C67  1  0.51160000  0.43420000  0.31780000  1.0 -0.0615603697
C  C68  1  0.48840000  0.56580000  0.31780000  1.0 -0.0615603697
C  C69  1  0.43420000  0.51160000  0.81780000  1.0 -0.0615603697
C  C70  1  0.56580000  0.48840000  0.81780000  1.0 -0.0615603697
C  C71  1  0.48840000  0.56580000  0.68220000  1.0 -0.0615603697
C  C72  1  0.51160000  0.43420000  0.68220000  1.0 -0.0615603697
C  C73  1  0.71230000  0.53310000  0.18880000  1.0 0.0016883739
C  C74  1  0.28770000  0.46690000  0.18880000  1.0 0.0016883739
C  C75  1  0.46690000  0.28770000  0.31120000  1.0 0.0016883739
C  C76  1  0.53310000  0.71230000  0.31120000  1.0 0.0016883739
C  C77  1  0.28770000  0.46690000  0.81120000  1.0 0.0016883739
C  C78  1  0.71230000  0.53310000  0.81120000  1.0 0.0016883739
C  C79  1  0.53310000  0.71230000  0.68880000  1.0 0.0016883739
C  C80  1  0.46690000  0.28770000  0.68880000  1.0 0.0016883739
C  C81  1  0.57660000  0.54760000  0.14240000  1.0 -0.092094742
C  C82  1  0.42340000  0.45240000  0.14240000  1.0 -0.092094742
C  C83  1  0.45240000  0.42340000  0.35760000  1.0 -0.092094742
C  C84  1  0.54760000  0.57660000  0.35760000  1.0 -0.092094742
C  C85  1  0.42340000  0.45240000  0.85760000  1.0 -0.092094742
C  C86  1  0.57660000  0.54760000  0.85760000  1.0 -0.092094742
C  C87  1  0.54760000  0.57660000  0.64240000  1.0 -0.092094742
C  C88  1  0.45240000  0.42340000  0.64240000  1.0 -0.092094742
C  C89  1  0.72250000  0.59570000  0.15120000  1.0 -0.0281331986
C  C90  1  0.27750000  0.40430000  0.15120000  1.0 -0.0281331986
C  C91  1  0.40430000  0.27750000  0.34880000  1.0 -0.0281331986
C  C92  1  0.59570000  0.72250000  0.34880000  1.0 -0.0281331986
C  C93  1  0.27750000  0.40430000  0.84880000  1.0 -0.0281331986
C  C94  1  0.72250000  0.59570000  0.84880000  1.0 -0.0281331986
C  C95  1  0.59570000  0.72250000  0.65120000  1.0 -0.0281331986
C  C96  1  0.40430000  0.27750000  0.65120000  1.0 -0.0281331986
C  C97  1  0.65836000  0.59784000  0.12570000  1.0 -0.0206414089
C  C98  1  0.34164000  0.40216000  0.12570000  1.0 -0.0206414089
C  C99  1  0.40216000  0.34164000  0.37430000  1.0 -0.0206414089
C  C100  1  0.59784000  0.65836000  0.37430000  1.0 -0.0206414089
C  C101  1  0.34164000  0.40216000  0.87430000  1.0 -0.0206414089
C  C102  1  0.65836000  0.59784000  0.87430000  1.0 -0.0206414089
C  C103  1  0.59784000  0.65836000  0.62570000  1.0 -0.0206414089
C  C104  1  0.40216000  0.34164000  0.62570000  1.0 -0.0206414089
C  C105  1  0.66888000  0.66072000  0.08570000  1.0 0.4103382745
C  C106  1  0.33112000  0.33928000  0.08570000  1.0 0.4103382745
C  C107  1  0.33928000  0.33112000  0.41430000  1.0 0.4103382745
C  C108  1  0.66072000  0.66888000  0.41430000  1.0 0.4103382745
C  C109  1  0.33112000  0.33928000  0.91430000  1.0 0.4103382745
C  C110  1  0.66888000  0.66072000  0.91430000  1.0 0.4103382745
C  C111  1  0.66072000  0.66888000  0.58570000  1.0 0.4103382745
C  C112  1  0.33928000  0.33112000  0.58570000  1.0 0.4103382745
C  C113  1  0.01970000  0.08990000  0.29658000  1.0 -0.2085701103
C  C114  1  0.98030000  0.91010000  0.29658000  1.0 -0.2085701103
C  C115  1  0.91010000  0.98030000  0.20342000  1.0 -0.2085701103
C  C116  1  0.08990000  0.01970000  0.20342000  1.0 -0.2085701103
C  C117  1  0.98030000  0.91010000  0.70342000  1.0 -0.2085701103
C  C118  1  0.01970000  0.08990000  0.70342000  1.0 -0.2085701103
C  C119  1  0.08990000  0.01970000  0.79658000  1.0 -0.2085701103
C  C120  1  0.91010000  0.98030000  0.79658000  1.0 -0.2085701103
C  C121  1  0.09667000  0.13773000  0.31525000  1.0 -0.092094742
C  C122  1  0.90333000  0.86227000  0.31525000  1.0 -0.092094742
C  C123  1  0.86227000  0.90333000  0.18475000  1.0 -0.092094742
C  C124  1  0.13773000  0.09667000  0.18475000  1.0 -0.092094742
C  C125  1  0.90333000  0.86227000  0.68475000  1.0 -0.092094742
C  C126  1  0.09667000  0.13773000  0.68475000  1.0 -0.092094742
C  C127  1  0.13773000  0.09667000  0.81525000  1.0 -0.092094742
C  C128  1  0.86227000  0.90333000  0.81525000  1.0 -0.092094742
C  C129  1  0.95447000  0.10393000  0.31763000  1.0 -0.1021704492
C  C130  1  0.04553000  0.89607000  0.31763000  1.0 -0.1021704492
C  C131  1  0.89607000  0.04553000  0.18237000  1.0 -0.1021704492
C  C132  1  0.10393000  0.95447000  0.18237000  1.0 -0.1021704492
C  C133  1  0.04553000  0.89607000  0.68237000  1.0 -0.1021704492
C  C134  1  0.95447000  0.10393000  0.68237000  1.0 -0.1021704492
C  C135  1  0.10393000  0.95447000  0.81763000  1.0 -0.1021704492
C  C136  1  0.89607000  0.04553000  0.81763000  1.0 -0.1021704492
C  C137  1  0.96810000  0.16430000  0.35804000  1.0 -0.092094742
C  C138  1  0.03190000  0.83570000  0.35804000  1.0 -0.092094742
C  C139  1  0.83570000  0.03190000  0.14196000  1.0 -0.092094742
C  C140  1  0.16430000  0.96810000  0.14196000  1.0 -0.092094742
C  C141  1  0.03190000  0.83570000  0.64196000  1.0 -0.092094742
C  C142  1  0.96810000  0.16430000  0.64196000  1.0 -0.092094742
C  C143  1  0.16430000  0.96810000  0.85804000  1.0 -0.092094742
C  C144  1  0.83570000  0.03190000  0.85804000  1.0 -0.092094742
C  C145  1  0.11078000  0.19982000  0.35506000  1.0 -0.1021704492
C  C146  1  0.88922000  0.80018000  0.35506000  1.0 -0.1021704492
C  C147  1  0.80018000  0.88922000  0.14494000  1.0 -0.1021704492
C  C148  1  0.19982000  0.11078000  0.14494000  1.0 -0.1021704492
C  C149  1  0.88922000  0.80018000  0.64494000  1.0 -0.1021704492
C  C150  1  0.11078000  0.19982000  0.64494000  1.0 -0.1021704492
C  C151  1  0.19982000  0.11078000  0.85506000  1.0 -0.1021704492
C  C152  1  0.80018000  0.88922000  0.85506000  1.0 -0.1021704492
C  C153  1  0.04506000  0.21094000  0.37698000  1.0 -0.0281331986
C  C154  1  0.95494000  0.78906000  0.37698000  1.0 -0.0281331986
C  C155  1  0.78906000  0.95494000  0.12302000  1.0 -0.0281331986
C  C156  1  0.21094000  0.04506000  0.12302000  1.0 -0.0281331986
C  C157  1  0.95494000  0.78906000  0.62302000  1.0 -0.0281331986
C  C158  1  0.04506000  0.21094000  0.62302000  1.0 -0.0281331986
C  C159  1  0.21094000  0.04506000  0.87698000  1.0 -0.0281331986
C  C160  1  0.78906000  0.95494000  0.87698000  1.0 -0.0281331986
C  C161  1  0.06020000  0.27460000  0.42111000  1.0 0.6484904059
C  C162  1  0.93980000  0.72540000  0.42111000  1.0 0.6484904059
C  C163  1  0.72540000  0.93980000  0.07889000  1.0 0.6484904059
C  C164  1  0.27460000  0.06020000  0.07889000  1.0 0.6484904059
C  C165  1  0.93980000  0.72540000  0.57889000  1.0 0.6484904059
C  C166  1  0.06020000  0.27460000  0.57889000  1.0 0.6484904059
C  C167  1  0.27460000  0.06020000  0.92111000  1.0 0.6484904059
C  C168  1  0.72540000  0.93980000  0.92111000  1.0 0.6484904059
C  C169  1  0.64830000  0.45470000  0.14380000  1.0 -0.0831572563
C  C170  1  0.35170000  0.54530000  0.14380000  1.0 -0.0831572563
C  C171  1  0.54530000  0.35170000  0.35620000  1.0 -0.0831572563
C  C172  1  0.45470000  0.64830000  0.35620000  1.0 -0.0831572563
C  C173  1  0.35170000  0.54530000  0.85620000  1.0 -0.0831572563
C  C174  1  0.64830000  0.45470000  0.85620000  1.0 -0.0831572563
C  C175  1  0.45470000  0.64830000  0.64380000  1.0 -0.0831572563
C  C176  1  0.54530000  0.35170000  0.64380000  1.0 -0.0831572563
C  C177  1  0.63680000  0.54040000  0.21720000  1.0 -0.0281331986
C  C178  1  0.36320000  0.45960000  0.21720000  1.0 -0.0281331986
C  C179  1  0.45960000  0.36320000  0.28280000  1.0 -0.0281331986
C  C180  1  0.54040000  0.63680000  0.28280000  1.0 -0.0281331986
C  C181  1  0.36320000  0.45960000  0.78280000  1.0 -0.0281331986
C  C182  1  0.63680000  0.54040000  0.78280000  1.0 -0.0281331986
C  C183  1  0.54040000  0.63680000  0.71720000  1.0 -0.0281331986
C  C184  1  0.45960000  0.36320000  0.71720000  1.0 -0.0281331986
C  C185  1  0.65810000  0.51810000  0.10540000  1.0 -0.1021704492
C  C186  1  0.34190000  0.48190000  0.10540000  1.0 -0.1021704492
C  C187  1  0.48190000  0.34190000  0.39460000  1.0 -0.1021704492
C  C188  1  0.51810000  0.65810000  0.39460000  1.0 -0.1021704492
C  C189  1  0.34190000  0.48190000  0.89460000  1.0 -0.1021704492
C  C190  1  0.65810000  0.51810000  0.89460000  1.0 -0.1021704492
C  C191  1  0.51810000  0.65810000  0.60540000  1.0 -0.1021704492
C  C192  1  0.48190000  0.34190000  0.60540000  1.0 -0.1021704492
C  C193  1  0.65020000  0.60340000  0.18000000  1.0 -0.0206414089
C  C194  1  0.34980000  0.39660000  0.18000000  1.0 -0.0206414089
C  C195  1  0.39660000  0.34980000  0.32000000  1.0 -0.0206414089
C  C196  1  0.60340000  0.65020000  0.32000000  1.0 -0.0206414089
C  C197  1  0.34980000  0.39660000  0.82000000  1.0 -0.0206414089
C  C198  1  0.65020000  0.60340000  0.82000000  1.0 -0.0206414089
C  C199  1  0.60340000  0.65020000  0.68000000  1.0 -0.0206414089
C  C200  1  0.39660000  0.34980000  0.68000000  1.0 -0.0206414089
O  O1  1  0.90869000  0.40755000  0.43896000  1.0 -0.689562001
O  O2  1  0.09131000  0.59245000  0.43896000  1.0 -0.689562001
O  O3  1  0.59245000  0.09131000  0.06104000  1.0 -0.689562001
O  O4  1  0.40755000  0.90869000  0.06104000  1.0 -0.689562001
O  O5  1  0.09131000  0.59245000  0.56104000  1.0 -0.689562001
O  O6  1  0.90869000  0.40755000  0.56104000  1.0 -0.689562001
O  O7  1  0.40755000  0.90869000  0.93896000  1.0 -0.689562001
O  O8  1  0.59245000  0.09131000  0.93896000  1.0 -0.689562001
O  O9  1  0.92060000  0.53420000  0.44150000  1.0 -0.6690363294
O  O10  1  0.07940000  0.46580000  0.44150000  1.0 -0.6690363294
O  O11  1  0.46580000  0.07940000  0.05850000  1.0 -0.6690363294
O  O12  1  0.53420000  0.92060000  0.05850000  1.0 -0.6690363294
O  O13  1  0.07940000  0.46580000  0.55850000  1.0 -0.6690363294
O  O14  1  0.92060000  0.53420000  0.55850000  1.0 -0.6690363294
O  O15  1  0.53420000  0.92060000  0.94150000  1.0 -0.6690363294
O  O16  1  0.46580000  0.07940000  0.94150000  1.0 -0.6690363294
O  O17  1  0.60660000  0.67840000  0.06920000  1.0 -0.1471351466
O  O18  1  0.39340000  0.32160000  0.06920000  1.0 -0.1423486403
O  O19  1  0.32160000  0.39340000  0.43080000  1.0 -0.1423486403
O  O20  1  0.67840000  0.60660000  0.43080000  1.0 -0.1471351466
O  O21  1  0.39340000  0.32160000  0.93080000  1.0 -0.1423486403
O  O22  1  0.60660000  0.67840000  0.93080000  1.0 -0.1471351466
O  O23  1  0.67840000  0.60660000  0.56920000  1.0 -0.1471351466
O  O24  1  0.32160000  0.39340000  0.56920000  1.0 -0.1423486403
O  O25  1  0.73714000  0.71446000  0.07120000  1.0 -0.2085701103
O  O26  1  0.26286000  0.28554000  0.07120000  1.0 -0.2085701103
O  O27  1  0.28554000  0.26286000  0.42880000  1.0 -0.2085701103
O  O28  1  0.71446000  0.73714000  0.42880000  1.0 -0.2085701103
O  O29  1  0.26286000  0.28554000  0.92880000  1.0 -0.2085701103
O  O30  1  0.73714000  0.71446000  0.92880000  1.0 -0.2085701103
O  O31  1  0.71446000  0.73714000  0.57120000  1.0 -0.2085701103
O  O32  1  0.28554000  0.26286000  0.57120000  1.0 -0.2085701103
O  O33  1  0.13071000  0.30873000  0.44044000  1.0 -0.689562001
O  O34  1  0.86929000  0.69127000  0.44044000  1.0 -0.689562001
O  O35  1  0.69127000  0.86929000  0.05956000  1.0 -0.689562001
O  O36  1  0.30873000  0.13071000  0.05956000  1.0 -0.689562001
O  O37  1  0.86929000  0.69127000  0.55956000  1.0 -0.689562001
O  O38  1  0.13071000  0.30873000  0.55956000  1.0 -0.689562001
O  O39  1  0.30873000  0.13071000  0.94044000  1.0 -0.689562001
O  O40  1  0.69127000  0.86929000  0.94044000  1.0 -0.689562001
O  O41  1  0.00012000  0.28790000  0.43598000  1.0 -0.6690363294
O  O42  1  0.99988000  0.71210000  0.43598000  1.0 -0.6690363294
O  O43  1  0.71210000  0.99988000  0.06402000  1.0 -0.6690363294
O  O44  1  0.28790000  0.00012000  0.06402000  1.0 -0.6690363294
O  O45  1  0.99988000  0.71210000  0.56402000  1.0 -0.6690363294
O  O46  1  0.00012000  0.28790000  0.56402000  1.0 -0.6690363294
O  O47  1  0.28790000  0.00012000  0.93598000  1.0 -0.6690363294
O  O48  1  0.71210000  0.99988000  0.93598000  1.0 -0.6690363294
O  O49  1  0.68410000  0.64490000  0.03500000  1.0 -0.1102547913
O  O50  1  0.31590000  0.35510000  0.03500000  1.0 -0.1102547913
O  O51  1  0.35510000  0.31590000  0.46500000  1.0 -0.1102547913
O  O52  1  0.64490000  0.68410000  0.46500000  1.0 -0.1102547913
O  O53  1  0.31590000  0.35510000  0.96500000  1.0 -0.1102547913
O  O54  1  0.68410000  0.64490000  0.96500000  1.0 -0.1102547913
O  O55  1  0.64490000  0.68410000  0.53500000  1.0 -0.1102547913
O  O56  1  0.35510000  0.31590000  0.53500000  1.0 -0.1102547913
O  O57  1  0.66230000  0.71750000  0.09590000  1.0 0.0716264688
O  O58  1  0.33770000  0.28250000  0.09590000  1.0 0.0716264688
O  O59  1  0.28250000  0.33770000  0.40410000  1.0 0.0716264688
O  O60  1  0.71750000  0.66230000  0.40410000  1.0 0.0716264688
O  O61  1  0.33770000  0.28250000  0.90410000  1.0 0.0716264688
O  O62  1  0.66230000  0.71750000  0.90410000  1.0 0.0716264688
O  O63  1  0.71750000  0.66230000  0.59590000  1.0 0.0716264688
O  O64  1  0.28250000  0.33770000  0.59590000  1.0 0.0716264688
