# DDEC6 charges by PACMAN v1.1 (https://github.com/mtap-research/PACMAN-charge/)
data_ZEYQUS_FSR_pacman
_symmetry_space_group_name_H-M   'P 1'
_cell_length_a   14.76500000
_cell_length_b   17.32500000
_cell_length_c   16.89200000
_cell_angle_alpha   90.00000000
_cell_angle_beta   118.04800000
_cell_angle_gamma   90.00000000
_symmetry_Int_Tables_number   1
_chemical_formula_structural   Co3H46C54(N5O8)2
_chemical_formula_sum   'Co6 H92 C108 N20 O32'
_cell_volume   3813.54648780
_cell_formula_units_Z   2
loop_
 _symmetry_equiv_pos_site_id
 _symmetry_equiv_pos_as_xyz
  1  'x, y, z'
loop_
 _atom_site_type_symbol
 _atom_site_label
 _atom_site_symmetry_multiplicity
 _atom_site_fract_x
 _atom_site_fract_y
 _atom_site_fract_z
 _atom_site_occupancy
 _atom_site_charge
Co  Co1  1  0.57235000  0.43965000  0.33912000  1.0 0.9529584786
Co  Co2  1  0.42765000  0.93965000  0.16088000  1.0 0.9529584786
Co  Co3  1  0.42765000  0.56035000  0.66088000  1.0 0.9529584786
Co  Co4  1  0.57235000  0.06035000  0.83912000  1.0 0.9529584786
Co  Co5  1  0.50000000  0.50000000  0.50000000  1.0 1.0721755614
Co  Co6  1  0.50000000  0.00000000  0.00000000  1.0 1.0721755614
H  H1  1  0.60620000  0.21290000  0.40810000  1.0 0.1106393532
H  H2  1  0.56630000  0.08350000  0.41690000  1.0 0.1287836684
H  H3  1  0.48230000  0.14160000  0.60610000  1.0 0.1287836684
H  H4  1  0.51440000  0.27160000  0.59090000  1.0 0.120048243
H  H5  1  0.85550000  0.57510000  0.45690000  1.0 0.1287836684
H  H6  1  0.00160000  0.65410000  0.53930000  1.0 0.1287836684
H  H7  1  0.89250000  0.72250000  0.69700000  1.0 0.1287836684
H  H8  1  0.76410000  0.63150000  0.63410000  1.0 0.1287836684
H  H9  1  0.27570000  0.73780000  0.67020000  1.0 0.1406461475
H  H10  1  0.41120000  0.82480000  0.72240000  1.0 0.120048243
H  H11  1  0.26810000  0.96560000  0.81990000  1.0 0.1287836684
H  H12  1  0.12400000  0.88270000  0.76050000  1.0 0.120048243
H  H13  1  0.64810000  0.51770000  0.23780000  1.0 0.120048243
H  H14  1  0.75080000  0.34990000  0.21410000  1.0 0.1287836684
H  H15  1  0.75480000  0.38280000  0.12730000  1.0 0.1406461475
H  H16  1  0.85320000  0.39000000  0.22390000  1.0 0.1287836684
H  H17  1  0.40110000  0.34690000  0.32430000  1.0 0.1006568753
H  H18  1  0.30310000  0.25370000  0.33910000  1.0 0.1406461475
H  H19  1  0.22900000  0.20910000  0.24850000  1.0 0.1406461475
H  H20  1  0.33670000  0.17180000  0.31770000  1.0 0.1406461475
H  H21  1  0.40280000  0.17940000  0.19380000  1.0 0.1406461475
H  H22  1  0.28400000  0.20010000  0.13380000  1.0 0.1406461475
H  H23  1  0.37030000  0.25640000  0.13450000  1.0 0.1406461475
H  H24  1  0.39380000  0.71290000  0.09190000  1.0 0.1106393532
H  H25  1  0.43370000  0.58350000  0.08310000  1.0 0.1287836684
H  H26  1  0.51770000  0.64160000  0.89390000  1.0 0.1287836684
H  H27  1  0.48560000  0.77160000  0.90910000  1.0 0.120048243
H  H28  1  0.14450000  0.07510000  0.04310000  1.0 0.1287836684
H  H29  1  0.99840000  0.15410000  0.96070000  1.0 0.1287836684
H  H30  1  0.10750000  0.22250000  0.80300000  1.0 0.1287836684
H  H31  1  0.23590000  0.13150000  0.86590000  1.0 0.1287836684
H  H32  1  0.72430000  0.23780000  0.82980000  1.0 0.1406461475
H  H33  1  0.58880000  0.32480000  0.77760000  1.0 0.120048243
H  H34  1  0.73190000  0.46560000  0.68010000  1.0 0.1287836684
H  H35  1  0.87600000  0.38270000  0.73950000  1.0 0.120048243
H  H36  1  0.35190000  0.01770000  0.26220000  1.0 0.120048243
H  H37  1  0.24920000  0.84990000  0.28590000  1.0 0.1287836684
H  H38  1  0.24520000  0.88280000  0.37270000  1.0 0.1406461475
H  H39  1  0.14680000  0.89000000  0.27610000  1.0 0.1287836684
H  H40  1  0.59890000  0.84690000  0.17570000  1.0 0.1006568753
H  H41  1  0.69690000  0.75370000  0.16090000  1.0 0.1406461475
H  H42  1  0.77100000  0.70910000  0.25150000  1.0 0.1406461475
H  H43  1  0.66330000  0.67180000  0.18230000  1.0 0.1406461475
H  H44  1  0.59720000  0.67940000  0.30620000  1.0 0.1406461475
H  H45  1  0.71600000  0.70010000  0.36620000  1.0 0.1406461475
H  H46  1  0.62970000  0.75640000  0.36550000  1.0 0.1406461475
H  H47  1  0.39380000  0.78710000  0.59190000  1.0 0.1106393532
H  H48  1  0.43370000  0.91650000  0.58310000  1.0 0.1287836684
H  H49  1  0.51770000  0.85840000  0.39390000  1.0 0.1287836684
H  H50  1  0.48560000  0.72840000  0.40910000  1.0 0.120048243
H  H51  1  0.14450000  0.42490000  0.54310000  1.0 0.1287836684
H  H52  1  0.99840000  0.34590000  0.46070000  1.0 0.1287836684
H  H53  1  0.10750000  0.27750000  0.30300000  1.0 0.1287836684
H  H54  1  0.23590000  0.36850000  0.36590000  1.0 0.1287836684
H  H55  1  0.72430000  0.26220000  0.32980000  1.0 0.1406461475
H  H56  1  0.58880000  0.17520000  0.27760000  1.0 0.120048243
H  H57  1  0.73190000  0.03440000  0.18010000  1.0 0.1287836684
H  H58  1  0.87600000  0.11730000  0.23950000  1.0 0.120048243
H  H59  1  0.35190000  0.48230000  0.76220000  1.0 0.120048243
H  H60  1  0.24920000  0.65010000  0.78590000  1.0 0.1287836684
H  H61  1  0.24520000  0.61720000  0.87270000  1.0 0.1406461475
H  H62  1  0.14680000  0.61000000  0.77610000  1.0 0.1287836684
H  H63  1  0.59890000  0.65310000  0.67570000  1.0 0.1006568753
H  H64  1  0.69690000  0.74630000  0.66090000  1.0 0.1406461475
H  H65  1  0.77100000  0.79090000  0.75150000  1.0 0.1406461475
H  H66  1  0.66330000  0.82820000  0.68230000  1.0 0.1406461475
H  H67  1  0.59720000  0.82060000  0.80620000  1.0 0.1406461475
H  H68  1  0.71600000  0.79990000  0.86620000  1.0 0.1406461475
H  H69  1  0.62970000  0.74360000  0.86550000  1.0 0.1406461475
H  H70  1  0.60620000  0.28710000  0.90810000  1.0 0.1106393532
H  H71  1  0.56630000  0.41650000  0.91690000  1.0 0.1287836684
H  H72  1  0.48230000  0.35840000  0.10610000  1.0 0.1287836684
H  H73  1  0.51440000  0.22840000  0.09090000  1.0 0.120048243
H  H74  1  0.85550000  0.92490000  0.95690000  1.0 0.1287836684
H  H75  1  0.00160000  0.84590000  0.03930000  1.0 0.1287836684
H  H76  1  0.89250000  0.77750000  0.19700000  1.0 0.1287836684
H  H77  1  0.76410000  0.86850000  0.13410000  1.0 0.1287836684
H  H78  1  0.27570000  0.76220000  0.17020000  1.0 0.1406461475
H  H79  1  0.41120000  0.67520000  0.22240000  1.0 0.120048243
H  H80  1  0.26810000  0.53440000  0.31990000  1.0 0.1287836684
H  H81  1  0.12400000  0.61730000  0.26050000  1.0 0.120048243
H  H82  1  0.64810000  0.98230000  0.73780000  1.0 0.120048243
H  H83  1  0.75080000  0.15010000  0.71410000  1.0 0.1287836684
H  H84  1  0.75480000  0.11720000  0.62730000  1.0 0.1406461475
H  H85  1  0.85320000  0.11000000  0.72390000  1.0 0.1287836684
H  H86  1  0.40110000  0.15310000  0.82430000  1.0 0.1006568753
H  H87  1  0.30310000  0.24630000  0.83910000  1.0 0.1406461475
H  H88  1  0.22900000  0.29090000  0.74850000  1.0 0.1406461475
H  H89  1  0.33670000  0.32820000  0.81770000  1.0 0.1406461475
H  H90  1  0.40280000  0.32060000  0.69380000  1.0 0.1406461475
H  H91  1  0.28400000  0.29990000  0.63380000  1.0 0.1406461475
H  H92  1  0.37030000  0.24360000  0.63450000  1.0 0.1406461475
C  C1  1  0.57440000  0.33870000  0.48140000  1.0 0.5700625768
C  C2  1  0.56140000  0.25490000  0.49680000  1.0 -0.0308690081
C  C3  1  0.57870000  0.19850000  0.44680000  1.0 -0.1001401587
C  C4  1  0.55660000  0.12150000  0.45280000  1.0 -0.1516362711
C  C5  1  0.52010000  0.10090000  0.51220000  1.0 0.1615266641
C  C6  1  0.50570000  0.15630000  0.56460000  1.0 -0.1516362711
C  C7  1  0.52550000  0.23340000  0.55600000  1.0 -0.1001401587
C  C8  1  0.69760000  0.54680000  0.49110000  1.0 0.5965080102
C  C9  1  0.79000000  0.59850000  0.53560000  1.0 -0.0204186132
C  C10  1  0.86190000  0.60390000  0.50720000  1.0 -0.1054184595
C  C11  1  0.94810000  0.65450000  0.55550000  1.0 -0.1516362711
C  C12  1  0.95750000  0.70050000  0.61940000  1.0 0.1106393532
C  C13  1  0.88760000  0.69200000  0.64840000  1.0 -0.1752859066
C  C14  1  0.80820000  0.63910000  0.60810000  1.0 -0.1001401587
C  C15  1  0.18480000  0.80580000  0.70600000  1.0 0.1546554146
C  C16  1  0.27250000  0.78510000  0.69710000  1.0 -0.1699782228
C  C17  1  0.35210000  0.83620000  0.72900000  1.0 -0.1001401587
C  C18  1  0.34930000  0.90490000  0.77120000  1.0 -0.0063678152
C  C19  1  0.26700000  0.92120000  0.78650000  1.0 -0.0742022405
C  C20  1  0.18210000  0.87170000  0.75230000  1.0 -0.1699782228
C  C21  1  0.43550000  0.96070000  0.79850000  1.0 0.5700625768
C  C22  1  0.67960000  0.46930000  0.24060000  1.0 0.2887950455
C  C23  1  0.77810000  0.39090000  0.19140000  1.0 -0.2952353666
C  C24  1  0.75480000  0.53150000  0.15450000  1.0 -0.3302459354
C  C25  1  0.40470000  0.32530000  0.27410000  1.0 0.2887950455
C  C26  1  0.30070000  0.22020000  0.29140000  1.0 -0.3708190332
C  C27  1  0.35260000  0.22150000  0.17080000  1.0 -0.2926581363
C  C28  1  0.42560000  0.83870000  0.01860000  1.0 0.5700625768
C  C29  1  0.43860000  0.75490000  0.00320000  1.0 -0.0308690081
C  C30  1  0.42130000  0.69850000  0.05320000  1.0 -0.1001401587
C  C31  1  0.44340000  0.62150000  0.04720000  1.0 -0.1516362711
C  C32  1  0.47990000  0.60090000  0.98780000  1.0 0.1615266641
C  C33  1  0.49430000  0.65630000  0.93540000  1.0 -0.1516362711
C  C34  1  0.47450000  0.73340000  0.94400000  1.0 -0.1001401587
C  C35  1  0.30240000  0.04680000  0.00890000  1.0 0.5965080102
C  C36  1  0.21000000  0.09850000  0.96440000  1.0 -0.0204186132
C  C37  1  0.13810000  0.10390000  0.99280000  1.0 -0.1054184595
C  C38  1  0.05190000  0.15450000  0.94450000  1.0 -0.1516362711
C  C39  1  0.04250000  0.20050000  0.88060000  1.0 0.1106393532
C  C40  1  0.11240000  0.19200000  0.85160000  1.0 -0.1752859066
C  C41  1  0.19180000  0.13910000  0.89190000  1.0 -0.1001401587
C  C42  1  0.81520000  0.30580000  0.79400000  1.0 0.1546554146
C  C43  1  0.72750000  0.28510000  0.80290000  1.0 -0.1699782228
C  C44  1  0.64790000  0.33620000  0.77100000  1.0 -0.1001401587
C  C45  1  0.65070000  0.40490000  0.72880000  1.0 -0.0063678152
C  C46  1  0.73300000  0.42120000  0.71350000  1.0 -0.0742022405
C  C47  1  0.81790000  0.37170000  0.74770000  1.0 -0.1699782228
C  C48  1  0.56450000  0.46070000  0.70150000  1.0 0.5700625768
C  C49  1  0.32040000  0.96930000  0.25940000  1.0 0.2887950455
C  C50  1  0.22190000  0.89090000  0.30860000  1.0 -0.2952353666
C  C51  1  0.24520000  0.03150000  0.34550000  1.0 -0.3302459354
C  C52  1  0.59530000  0.82530000  0.22590000  1.0 0.2887950455
C  C53  1  0.69930000  0.72020000  0.20860000  1.0 -0.3708190332
C  C54  1  0.64740000  0.72150000  0.32920000  1.0 -0.2926581363
C  C55  1  0.42560000  0.66130000  0.51860000  1.0 0.5700625768
C  C56  1  0.43860000  0.74510000  0.50320000  1.0 -0.0308690081
C  C57  1  0.42130000  0.80150000  0.55320000  1.0 -0.1001401587
C  C58  1  0.44340000  0.87850000  0.54720000  1.0 -0.1516362711
C  C59  1  0.47990000  0.89910000  0.48780000  1.0 0.1615266641
C  C60  1  0.49430000  0.84370000  0.43540000  1.0 -0.1516362711
C  C61  1  0.47450000  0.76660000  0.44400000  1.0 -0.1001401587
C  C62  1  0.30240000  0.45320000  0.50890000  1.0 0.5965080102
C  C63  1  0.21000000  0.40150000  0.46440000  1.0 -0.0204186132
C  C64  1  0.13810000  0.39610000  0.49280000  1.0 -0.1054184595
C  C65  1  0.05190000  0.34550000  0.44450000  1.0 -0.1516362711
C  C66  1  0.04250000  0.29950000  0.38060000  1.0 0.1106393532
C  C67  1  0.11240000  0.30800000  0.35160000  1.0 -0.1752859066
C  C68  1  0.19180000  0.36090000  0.39190000  1.0 -0.1001401587
C  C69  1  0.81520000  0.19420000  0.29400000  1.0 0.1546554146
C  C70  1  0.72750000  0.21490000  0.30290000  1.0 -0.1699782228
C  C71  1  0.64790000  0.16380000  0.27100000  1.0 -0.1001401587
C  C72  1  0.65070000  0.09510000  0.22880000  1.0 -0.0063678152
C  C73  1  0.73300000  0.07880000  0.21350000  1.0 -0.0742022405
C  C74  1  0.81790000  0.12830000  0.24770000  1.0 -0.1699782228
C  C75  1  0.56450000  0.03930000  0.20150000  1.0 0.5700625768
C  C76  1  0.32040000  0.53070000  0.75940000  1.0 0.2887950455
C  C77  1  0.22190000  0.60910000  0.80860000  1.0 -0.2952353666
C  C78  1  0.24520000  0.46850000  0.84550000  1.0 -0.3302459354
C  C79  1  0.59530000  0.67470000  0.72590000  1.0 0.2887950455
C  C80  1  0.69930000  0.77980000  0.70860000  1.0 -0.3708190332
C  C81  1  0.64740000  0.77850000  0.82920000  1.0 -0.2926581363
C  C82  1  0.57440000  0.16130000  0.98140000  1.0 0.5700625768
C  C83  1  0.56140000  0.24510000  0.99680000  1.0 -0.0308690081
C  C84  1  0.57870000  0.30150000  0.94680000  1.0 -0.1001401587
C  C85  1  0.55660000  0.37850000  0.95280000  1.0 -0.1516362711
C  C86  1  0.52010000  0.39910000  0.01220000  1.0 0.1615266641
C  C87  1  0.50570000  0.34370000  0.06460000  1.0 -0.1516362711
C  C88  1  0.52550000  0.26660000  0.05600000  1.0 -0.1001401587
C  C89  1  0.69760000  0.95320000  0.99110000  1.0 0.5965080102
C  C90  1  0.79000000  0.90150000  0.03560000  1.0 -0.0204186132
C  C91  1  0.86190000  0.89610000  0.00720000  1.0 -0.1054184595
C  C92  1  0.94810000  0.84550000  0.05550000  1.0 -0.1516362711
C  C93  1  0.95750000  0.79950000  0.11940000  1.0 0.1106393532
C  C94  1  0.88760000  0.80800000  0.14840000  1.0 -0.1752859066
C  C95  1  0.80820000  0.86090000  0.10810000  1.0 -0.1001401587
C  C96  1  0.18480000  0.69420000  0.20600000  1.0 0.1546554146
C  C97  1  0.27250000  0.71490000  0.19710000  1.0 -0.1699782228
C  C98  1  0.35210000  0.66380000  0.22900000  1.0 -0.1001401587
C  C99  1  0.34930000  0.59510000  0.27120000  1.0 -0.0063678152
C  C100  1  0.26700000  0.57880000  0.28650000  1.0 -0.0742022405
C  C101  1  0.18210000  0.62830000  0.25230000  1.0 -0.1699782228
C  C102  1  0.43550000  0.53930000  0.29850000  1.0 0.5700625768
C  C103  1  0.67960000  0.03070000  0.74060000  1.0 0.2887950455
C  C104  1  0.77810000  0.10910000  0.69140000  1.0 -0.2952353666
C  C105  1  0.75480000  0.96850000  0.65450000  1.0 -0.3302459354
C  C106  1  0.40470000  0.17470000  0.77410000  1.0 0.2887950455
C  C107  1  0.30070000  0.27980000  0.79140000  1.0 -0.3708190332
C  C108  1  0.35260000  0.27850000  0.67080000  1.0 -0.2926581363
N  N1  1  0.49350000  0.02380000  0.52430000  1.0 -0.1001401587
N  N2  1  0.04430000  0.76250000  0.67660000  1.0 -0.0535194576
N  N3  1  0.10710000  0.74880000  0.65900000  1.0 -0.1001401587
N  N4  1  0.74210000  0.46410000  0.20430000  1.0 0.1006568753
N  N5  1  0.35390000  0.26170000  0.24190000  1.0 0.0547491116
N  N6  1  0.50650000  0.52380000  0.97570000  1.0 -0.1001401587
N  N7  1  0.95570000  0.26250000  0.82340000  1.0 -0.0535194576
N  N8  1  0.89290000  0.24880000  0.84100000  1.0 -0.1001401587
N  N9  1  0.25790000  0.96410000  0.29570000  1.0 0.1006568753
N  N10  1  0.64610000  0.76170000  0.25810000  1.0 0.0547491116
N  N11  1  0.50650000  0.97620000  0.47570000  1.0 -0.1001401587
N  N12  1  0.95570000  0.23750000  0.32340000  1.0 -0.0535194576
N  N13  1  0.89290000  0.25120000  0.34100000  1.0 -0.1001401587
N  N14  1  0.25790000  0.53590000  0.79570000  1.0 0.1006568753
N  N15  1  0.64610000  0.73830000  0.75810000  1.0 0.0547491116
N  N16  1  0.49350000  0.47620000  0.02430000  1.0 -0.1001401587
N  N17  1  0.04430000  0.73750000  0.17660000  1.0 -0.0535194576
N  N18  1  0.10710000  0.75120000  0.15900000  1.0 -0.1001401587
N  N19  1  0.74210000  0.03590000  0.70430000  1.0 0.1006568753
N  N20  1  0.35390000  0.23830000  0.74190000  1.0 0.0547491116
O  O1  1  0.54320000  0.38653000  0.51830000  1.0 -0.5498453984
O  O2  1  0.61200000  0.35360000  0.42960000  1.0 -0.562757657
O  O3  1  0.64350000  0.54050000  0.52880000  1.0 -0.5389120514
O  O4  1  0.68340000  0.51550000  0.41950000  1.0 -0.5498453984
O  O5  1  0.48910000  0.96060000  0.75920000  1.0 -0.5389120514
O  O6  1  0.45200000  0.01074000  0.85950000  1.0 -0.6060035984
O  O7  1  0.66020000  0.41630000  0.27690000  1.0 -0.4033190618
O  O8  1  0.45820000  0.36160000  0.24660000  1.0 -0.4608669291
O  O9  1  0.45680000  0.88653000  0.98170000  1.0 -0.5498453984
O  O10  1  0.38800000  0.85360000  0.07040000  1.0 -0.562757657
O  O11  1  0.35650000  0.04050000  0.97120000  1.0 -0.5389120514
O  O12  1  0.31660000  0.01550000  0.08050000  1.0 -0.5498453984
O  O13  1  0.51090000  0.46060000  0.74080000  1.0 -0.5389120514
O  O14  1  0.54800000  0.51074000  0.64050000  1.0 -0.6060035984
O  O15  1  0.33980000  0.91630000  0.22310000  1.0 -0.4033190618
O  O16  1  0.54180000  0.86160000  0.25340000  1.0 -0.4608669291
O  O17  1  0.45680000  0.61347000  0.48170000  1.0 -0.5498453984
O  O18  1  0.38800000  0.64640000  0.57040000  1.0 -0.562757657
O  O19  1  0.35650000  0.45950000  0.47120000  1.0 -0.5389120514
O  O20  1  0.31660000  0.48450000  0.58050000  1.0 -0.5498453984
O  O21  1  0.51090000  0.03940000  0.24080000  1.0 -0.5389120514
O  O22  1  0.54800000  0.98926000  0.14050000  1.0 -0.6060035984
O  O23  1  0.33980000  0.58370000  0.72310000  1.0 -0.4033190618
O  O24  1  0.54180000  0.63840000  0.75340000  1.0 -0.4608669291
O  O25  1  0.54320000  0.11347000  0.01830000  1.0 -0.5498453984
O  O26  1  0.61200000  0.14640000  0.92960000  1.0 -0.562757657
O  O27  1  0.64350000  0.95950000  0.02880000  1.0 -0.5389120514
O  O28  1  0.68340000  0.98450000  0.91950000  1.0 -0.5498453984
O  O29  1  0.48910000  0.53940000  0.25920000  1.0 -0.5389120514
O  O30  1  0.45200000  0.48926000  0.35950000  1.0 -0.6060035984
O  O31  1  0.66020000  0.08370000  0.77690000  1.0 -0.4033190618
O  O32  1  0.45820000  0.13840000  0.74660000  1.0 -0.4608669291
