# DDEC6 charges by PACMAN v1.1 (https://github.com/mtap-research/PACMAN-charge/)
data_ZEYRON_ion_pacman
_symmetry_space_group_name_H-M   'P 1'
_cell_length_a   14.15690000
_cell_length_b   16.49290000
_cell_length_c   16.53000000
_cell_angle_alpha   84.76300000
_cell_angle_beta   75.83500000
_cell_angle_gamma   88.62800000
_symmetry_Int_Tables_number   1
_chemical_formula_structural   Mn3H108C104(N2O17)2
_chemical_formula_sum   'Mn3 H108 C104 N4 O34'
_cell_volume   3726.58586102
_cell_formula_units_Z   1
loop_
 _symmetry_equiv_pos_site_id
 _symmetry_equiv_pos_as_xyz
  1  'x, y, z'
loop_
 _atom_site_type_symbol
 _atom_site_label
 _atom_site_symmetry_multiplicity
 _atom_site_fract_x
 _atom_site_fract_y
 _atom_site_fract_z
 _atom_site_occupancy
 _atom_site_charge
Mn  Mn1  1  0.95333000  0.84116000  0.18161000  1.0 1.0279284444
Mn  Mn2  1  0.04667000  0.15884000  0.81839000  1.0 1.0279284444
Mn  Mn3  1  0.00000000  0.00000000  0.00000000  1.0 1.0642554488
H  H1  1  0.29602000  0.90830000  0.05273000  1.0 0.1200401273
H  H2  1  0.26867000  0.98678000  0.10008000  1.0 0.1400684679
H  H3  1  0.24273000  0.78271000  0.07584000  1.0 0.1200401273
H  H4  1  0.24274000  0.64244000  0.09906000  1.0 0.1200401273
H  H5  1  0.31502000  0.66031000  0.31626000  1.0 0.1125419397
H  H6  1  0.32256000  0.80056000  0.29053000  1.0 0.1400684679
H  H7  1  0.17020000  0.54533000  0.33682000  1.0 0.1200401273
H  H8  1  0.51001000  0.57802000  0.03847000  1.0 0.1303553526
H  H9  1  0.51467000  0.52979000  0.12364000  1.0 0.1200401273
H  H10  1  0.45884000  0.61302000  0.12337000  1.0 0.1125419397
H  H11  1  0.18842000  0.19488000  0.28272000  1.0 0.1303553526
H  H12  1  0.18080000  0.26258000  0.21159000  1.0 0.1200401273
H  H13  1  0.12278000  0.27168000  0.30412000  1.0 0.1125419397
H  H14  1  0.20987000  0.30733000  0.43764000  1.0 0.1125419397
H  H15  1  0.09552000  0.25778000  0.55535000  1.0 0.1200401273
H  H16  1  0.90089000  0.41908000  0.49505000  1.0 0.1200401273
H  H17  1  0.01850000  0.47163000  0.37979000  1.0 0.1200401273
H  H18  1  0.98122000  0.21684000  0.65286000  1.0 0.1303553526
H  H19  1  0.88638000  0.24476000  0.71523000  1.0 0.1303553526
H  H20  1  0.57507000  0.21933000  0.01690000  1.0 0.1125419397
H  H21  1  0.53909000  0.38678000  0.31991000  1.0 0.0863521126
H  H22  1  0.55479000  0.30520000  0.27654000  1.0 0.1125419397
H  H23  1  0.44916000  0.33890000  0.30932000  1.0 0.1125419397
H  H24  1  0.20059000  0.37323000  0.00437000  1.0 0.1200401273
H  H25  1  0.30804000  0.35285000  0.95860000  1.0 0.1200401273
H  H26  1  0.28707000  0.42436000  0.01688000  1.0 0.1125419397
H  H27  1  0.27564000  0.16511000  0.05539000  1.0 0.1125419397
H  H28  1  0.24143000  0.06988000  0.97212000  1.0 0.1200401273
H  H29  1  0.49636000  0.12210000  0.80616000  1.0 0.1400684679
H  H30  1  0.53022000  0.21574000  0.89102000  1.0 0.1049052205
H  H31  1  0.25016000  0.96413000  0.90279000  1.0 0.1200401273
H  H32  1  0.26374000  0.95064000  0.80796000  1.0 0.1400684679
H  H33  1  0.68816000  0.18190000  0.10947000  1.0 0.1125419397
H  H34  1  0.85459000  0.18288000  0.09512000  1.0 0.1303553526
H  H35  1  0.85156000  0.42678000  0.06826000  1.0 0.1200401273
H  H36  1  0.68521000  0.42555000  0.08713000  1.0 0.1200401273
H  H37  1  0.99151000  0.21198000  0.13063000  1.0 0.1303553526
H  H38  1  0.08769000  0.25554000  0.08039000  1.0 0.1303553526
H  H39  1  0.70398000  0.09170000  0.94727000  1.0 0.1200401273
H  H40  1  0.73133000  0.01322000  0.89992000  1.0 0.1400684679
H  H41  1  0.75727000  0.21729000  0.92416000  1.0 0.1200401273
H  H42  1  0.75726000  0.35756000  0.90094000  1.0 0.1200401273
H  H43  1  0.68498000  0.33969000  0.68374000  1.0 0.1125419397
H  H44  1  0.67744000  0.19944000  0.70947000  1.0 0.1400684679
H  H45  1  0.82980000  0.45467000  0.66318000  1.0 0.1200401273
H  H46  1  0.48999000  0.42198000  0.96153000  1.0 0.1303553526
H  H47  1  0.48533000  0.47021000  0.87636000  1.0 0.1200401273
H  H48  1  0.54116000  0.38698000  0.87663000  1.0 0.1125419397
H  H49  1  0.81158000  0.80512000  0.71728000  1.0 0.1303553526
H  H50  1  0.81920000  0.73742000  0.78841000  1.0 0.1200401273
H  H51  1  0.87722000  0.72832000  0.69588000  1.0 0.1125419397
H  H52  1  0.79013000  0.69267000  0.56236000  1.0 0.1125419397
H  H53  1  0.90448000  0.74222000  0.44465000  1.0 0.1200401273
H  H54  1  0.09911000  0.58092000  0.50495000  1.0 0.1200401273
H  H55  1  0.98150000  0.52837000  0.62021000  1.0 0.1200401273
H  H56  1  0.01878000  0.78316000  0.34714000  1.0 0.1303553526
H  H57  1  0.11362000  0.75524000  0.28477000  1.0 0.1303553526
H  H58  1  0.42493000  0.78067000  0.98310000  1.0 0.1125419397
H  H59  1  0.46091000  0.61322000  0.68009000  1.0 0.0863521126
H  H60  1  0.44521000  0.69480000  0.72346000  1.0 0.1125419397
H  H61  1  0.55084000  0.66110000  0.69068000  1.0 0.1125419397
H  H62  1  0.79941000  0.62677000  0.99563000  1.0 0.1200401273
H  H63  1  0.69196000  0.64715000  0.04140000  1.0 0.1200401273
H  H64  1  0.71293000  0.57564000  0.98312000  1.0 0.1200401273
H  H65  1  0.72436000  0.83489000  0.94461000  1.0 0.1125419397
H  H66  1  0.75857000  0.93012000  0.02788000  1.0 0.1200401273
H  H67  1  0.50364000  0.87790000  0.19384000  1.0 0.1400684679
H  H68  1  0.46978000  0.78426000  0.10898000  1.0 0.1049052205
H  H69  1  0.74984000  0.03587000  0.09721000  1.0 0.1200401273
H  H70  1  0.73626000  0.04936000  0.19204000  1.0 0.1400684679
H  H71  1  0.31184000  0.81810000  0.89053000  1.0 0.1125419397
H  H72  1  0.14541000  0.81712000  0.90488000  1.0 0.1303553526
H  H73  1  0.14844000  0.57322000  0.93174000  1.0 0.1200401273
H  H74  1  0.31479000  0.57445000  0.91287000  1.0 0.1200401273
H  H75  1  0.00849000  0.78802000  0.86937000  1.0 0.1303553526
H  H76  1  0.91231000  0.74446000  0.91961000  1.0 0.1303553526
H  H77  1  0.33124000  0.52766000  0.59530000  1.0 0.1658314791
H  H78  1  0.26022000  0.56619000  0.55453000  1.0 0.189648005
H  H79  1  0.19898000  0.45825000  0.64701000  1.0 0.1200401273
H  H80  1  0.18417000  0.45350000  0.55663000  1.0 0.1303553526
H  H81  1  0.26874000  0.40439000  0.58452000  1.0 0.1200401273
H  H82  1  0.38510000  0.55029000  0.47449000  1.0 0.0690231964
H  H83  1  0.29976000  0.49895000  0.46020000  1.0 0.1049052205
H  H84  1  0.37674000  0.45719000  0.50440000  1.0 0.080052751
H  H85  1  0.96559000  0.55500000  0.22691000  1.0 0.2535478946
H  H86  1  0.90037000  0.51341000  0.19039000  1.0 0.2382414963
H  H87  1  0.95419000  0.62644000  0.10827000  1.0 0.1400684679
H  H88  1  0.06100000  0.59438000  0.09982000  1.0 0.1303553526
H  H89  1  0.98943000  0.54935000  0.06016000  1.0 0.1125419397
H  H90  1  0.99857000  0.42222000  0.24158000  1.0 0.1200401273
H  H91  1  0.01269000  0.41869000  0.14489000  1.0 0.1200401273
H  H92  1  0.08792000  0.46567000  0.17872000  1.0 0.1303553526
H  H93  1  0.66876000  0.47234000  0.40470000  1.0 0.1658314791
H  H94  1  0.73978000  0.43381000  0.44547000  1.0 0.189648005
H  H95  1  0.80102000  0.54175000  0.35299000  1.0 0.1200401273
H  H96  1  0.81583000  0.54650000  0.44337000  1.0 0.1303553526
H  H97  1  0.73126000  0.59561000  0.41548000  1.0 0.1200401273
H  H98  1  0.61490000  0.44971000  0.52551000  1.0 0.0690231964
H  H99  1  0.70024000  0.50105000  0.53980000  1.0 0.1049052205
H  H100  1  0.62326000  0.54281000  0.49560000  1.0 0.080052751
H  H101  1  0.03441000  0.44500000  0.77309000  1.0 0.2535478946
H  H102  1  0.09963000  0.48659000  0.80961000  1.0 0.2382414963
H  H103  1  0.04581000  0.37356000  0.89173000  1.0 0.1400684679
H  H104  1  0.93900000  0.40562000  0.90018000  1.0 0.1303553526
H  H105  1  0.01057000  0.45065000  0.93984000  1.0 0.1125419397
H  H106  1  0.00143000  0.57778000  0.75842000  1.0 0.1200401273
H  H107  1  0.98731000  0.58131000  0.85511000  1.0 0.1200401273
H  H108  1  0.91208000  0.53433000  0.82128000  1.0 0.1303553526
C  C1  1  0.14910000  0.91820000  0.10240000  1.0 0.6012807813
C  C2  1  0.25540000  0.92900000  0.10280000  1.0 -0.1713748213
C  C3  1  0.28130000  0.80580000  0.18190000  1.0 0.2382414963
C  C4  1  0.25790000  0.75800000  0.12400000  1.0 -0.2221114851
C  C5  1  0.25750000  0.67390000  0.13820000  1.0 -0.1207541387
C  C6  1  0.27880000  0.63590000  0.21010000  1.0 0.0690231964
C  C7  1  0.30160000  0.68470000  0.26730000  1.0 -0.128579124
C  C8  1  0.30480000  0.76910000  0.25280000  1.0 -0.2109652632
C  C9  1  0.27380000  0.54580000  0.22820000  1.0 -0.0537448573
C  C10  1  0.33200000  0.49390000  0.17410000  1.0 0.1571402278
C  C11  1  0.32780000  0.41000000  0.19460000  1.0 -0.1001018539
C  C12  1  0.26260000  0.37690000  0.26600000  1.0 0.1496778082
C  C13  1  0.20130000  0.42810000  0.31990000  1.0 -0.0588857058
C  C14  1  0.20910000  0.51120000  0.30060000  1.0 -0.1992679603
C  C15  1  0.47490000  0.56420000  0.09540000  1.0 -0.2221114851
C  C16  1  0.18210000  0.25230000  0.26940000  1.0 -0.2278627429
C  C17  1  0.12710000  0.39490000  0.39560000  1.0 0.0544288073
C  C18  1  0.14800000  0.33050000  0.44950000  1.0 -0.140241357
C  C19  1  0.07930000  0.30000000  0.51990000  1.0 -0.2221114851
C  C20  1  0.98650000  0.33280000  0.53730000  1.0 0.2535478946
C  C21  1  0.96340000  0.39710000  0.48390000  1.0 -0.2278627429
C  C22  1  0.03390000  0.42820000  0.41420000  1.0 -0.1480383648
C  C23  1  0.94360000  0.26410000  0.67290000  1.0 -0.1992679603
C  C24  1  0.00430000  0.31530000  0.71250000  1.0 0.5825088647
C  C25  1  0.39810000  0.35550000  0.14120000  1.0 -0.1001018539
C  C26  1  0.36920000  0.30820000  0.08640000  1.0 0.1400684679
C  C27  1  0.43400000  0.25500000  0.04070000  1.0 -0.0402624413
C  C28  1  0.53090000  0.25400000  0.04830000  1.0 -0.1992679603
C  C29  1  0.56340000  0.30180000  0.09990000  1.0 -0.0402624413
C  C30  1  0.49450000  0.35150000  0.14920000  1.0 0.1496778082
C  C31  1  0.51580000  0.35360000  0.28410000  1.0 -0.2278627429
C  C32  1  0.26690000  0.37110000  0.00890000  1.0 -0.2389161262
C  C33  1  0.40640000  0.19980000  0.98440000  1.0 0.0690231964
C  C34  1  0.32080000  0.15610000  0.00580000  1.0 -0.1207541387
C  C35  1  0.29940000  0.09900000  0.95590000  1.0 -0.2278627429
C  C36  1  0.36720000  0.08640000  0.88070000  1.0 0.2535478946
C  C37  1  0.45220000  0.13010000  0.85660000  1.0 -0.2109652632
C  C38  1  0.47240000  0.18640000  0.90770000  1.0 -0.140241357
C  C39  1  0.26220000  0.99160000  0.84680000  1.0 -0.1713748213
C  C40  1  0.17950000  0.05040000  0.84210000  1.0 0.5825088647
C  C41  1  0.66920000  0.30320000  0.09840000  1.0 0.0690231964
C  C42  1  0.72090000  0.23130000  0.10130000  1.0 -0.128579124
C  C43  1  0.82100000  0.23180000  0.09210000  1.0 -0.2109652632
C  C44  1  0.87030000  0.30400000  0.07860000  1.0 0.2382414963
C  C45  1  0.81860000  0.37740000  0.07670000  1.0 -0.2221114851
C  C46  1  0.71930000  0.37660000  0.08730000  1.0 -0.1207541387
C  C47  1  0.02300000  0.24040000  0.07720000  1.0 -0.1772362414
C  C48  1  0.03360000  0.18140000  0.00980000  1.0 0.6012807813
C  C49  1  0.85090000  0.08180000  0.89760000  1.0 0.6012807813
C  C50  1  0.74460000  0.07100000  0.89720000  1.0 -0.1713748213
C  C51  1  0.71870000  0.19420000  0.81810000  1.0 0.2382414963
C  C52  1  0.74210000  0.24200000  0.87600000  1.0 -0.2221114851
C  C53  1  0.74250000  0.32610000  0.86180000  1.0 -0.1207541387
C  C54  1  0.72120000  0.36410000  0.78990000  1.0 0.0690231964
C  C55  1  0.69840000  0.31530000  0.73270000  1.0 -0.128579124
C  C56  1  0.69520000  0.23090000  0.74720000  1.0 -0.2109652632
C  C57  1  0.72620000  0.45420000  0.77180000  1.0 -0.0537448573
C  C58  1  0.66800000  0.50610000  0.82590000  1.0 0.1571402278
C  C59  1  0.67220000  0.59000000  0.80540000  1.0 -0.1001018539
C  C60  1  0.73740000  0.62310000  0.73400000  1.0 0.1496778082
C  C61  1  0.79870000  0.57190000  0.68010000  1.0 -0.0588857058
C  C62  1  0.79090000  0.48880000  0.69940000  1.0 -0.1992679603
C  C63  1  0.52510000  0.43580000  0.90460000  1.0 -0.2221114851
C  C64  1  0.81790000  0.74770000  0.73060000  1.0 -0.2278627429
C  C65  1  0.87290000  0.60510000  0.60440000  1.0 0.0544288073
C  C66  1  0.85200000  0.66950000  0.55050000  1.0 -0.140241357
C  C67  1  0.92070000  0.70000000  0.48010000  1.0 -0.2221114851
C  C68  1  0.01350000  0.66720000  0.46270000  1.0 0.2535478946
C  C69  1  0.03660000  0.60290000  0.51610000  1.0 -0.2278627429
C  C70  1  0.96610000  0.57180000  0.58580000  1.0 -0.1480383648
C  C71  1  0.05640000  0.73590000  0.32710000  1.0 -0.1992679603
C  C72  1  0.99570000  0.68470000  0.28750000  1.0 0.5825088647
C  C73  1  0.60190000  0.64450000  0.85880000  1.0 -0.1001018539
C  C74  1  0.63080000  0.69180000  0.91360000  1.0 0.1400684679
C  C75  1  0.56600000  0.74500000  0.95930000  1.0 -0.0402624413
C  C76  1  0.46910000  0.74600000  0.95170000  1.0 -0.1992679603
C  C77  1  0.43660000  0.69820000  0.90010000  1.0 -0.0402624413
C  C78  1  0.50550000  0.64850000  0.85080000  1.0 0.1496778082
C  C79  1  0.48420000  0.64640000  0.71590000  1.0 -0.2278627429
C  C80  1  0.73310000  0.62890000  0.99110000  1.0 -0.2389161262
C  C81  1  0.59360000  0.80020000  0.01560000  1.0 0.0690231964
C  C82  1  0.67920000  0.84390000  0.99420000  1.0 -0.1207541387
C  C83  1  0.70060000  0.90100000  0.04410000  1.0 -0.2278627429
C  C84  1  0.63280000  0.91360000  0.11930000  1.0 0.2535478946
C  C85  1  0.54780000  0.86990000  0.14340000  1.0 -0.2109652632
C  C86  1  0.52760000  0.81360000  0.09230000  1.0 -0.140241357
C  C87  1  0.73780000  0.00840000  0.15320000  1.0 -0.1713748213
C  C88  1  0.82050000  0.94960000  0.15790000  1.0 0.5825088647
C  C89  1  0.33080000  0.69680000  0.90160000  1.0 0.0690231964
C  C90  1  0.27910000  0.76870000  0.89870000  1.0 -0.128579124
C  C91  1  0.17900000  0.76820000  0.90790000  1.0 -0.2109652632
C  C92  1  0.12970000  0.69600000  0.92140000  1.0 0.2382414963
C  C93  1  0.18140000  0.62260000  0.92330000  1.0 -0.2221114851
C  C94  1  0.28070000  0.62340000  0.91270000  1.0 -0.1207541387
C  C95  1  0.97700000  0.75960000  0.92280000  1.0 -0.1772362414
C  C96  1  0.96640000  0.81860000  0.99020000  1.0 0.6012807813
C  C97  1  0.23160000  0.45390000  0.58940000  1.0 -0.3002249274
C  C98  1  0.34070000  0.50630000  0.49750000  1.0 -0.1713748213
C  C99  1  0.99450000  0.57870000  0.10650000  1.0 -0.3002249274
C  C100  1  0.02050000  0.45180000  0.18760000  1.0 -0.3192114133
C  C101  1  0.76840000  0.54610000  0.41060000  1.0 -0.3002249274
C  C102  1  0.65930000  0.49370000  0.50250000  1.0 -0.1713748213
C  C103  1  0.00550000  0.42130000  0.89350000  1.0 -0.3002249274
C  C104  1  0.97950000  0.54820000  0.81240000  1.0 -0.3192114133
N  N1  1  0.29430000  0.52080000  0.55990000  1.0 -0.0813580278
N  N2  1  0.96240000  0.52690000  0.18420000  1.0 -0.1207541387
N  N3  1  0.70570000  0.47920000  0.44010000  1.0 -0.0813580278
N  N4  1  0.03760000  0.47310000  0.81580000  1.0 -0.1207541387
O  O1  1  0.12690000  0.94510000  0.03660000  1.0 -0.5725850139
O  O2  1  0.09370000  0.88520000  0.16830000  1.0 -0.52876654
O  O3  1  0.28260000  0.88940000  0.17410000  1.0 -0.1480383648
O  O4  1  0.19740000  0.12110000  0.80820000  1.0 -0.4918784473
O  O5  1  0.09370000  0.02400000  0.87170000  1.0 -0.5725850139
O  O6  1  0.35450000  0.03100000  0.82750000  1.0 -0.140241357
O  O7  1  0.04950000  0.10950000  0.03380000  1.0 -0.5594057116
O  O8  1  0.02650000  0.20930000  0.93870000  1.0 -0.549912003
O  O9  1  0.96950000  0.31290000  0.06560000  1.0 -0.1860344309
O  O10  1  0.04770000  0.27690000  0.76380000  1.0 -0.5725850139
O  O11  1  0.00740000  0.39040000  0.69480000  1.0 -0.5396223638
O  O12  1  0.91330000  0.30790000  0.60460000  1.0 -0.1772362414
O  O13  1  0.26310000  0.29380000  0.28400000  1.0 -0.1480383648
O  O14  1  0.38720000  0.52210000  0.09640000  1.0 -0.1713748213
O  O15  1  0.27450000  0.31600000  0.07860000  1.0 -0.1992679603
O  O16  1  0.52200000  0.39760000  0.20560000  1.0 -0.1860344309
O  O17  1  0.92250000  0.89830000  0.30770000  1.0 -0.3192114133
O  O18  1  0.87310000  0.05490000  0.96340000  1.0 -0.5725850139
O  O19  1  0.90630000  0.11480000  0.83170000  1.0 -0.52876654
O  O20  1  0.71740000  0.11060000  0.82590000  1.0 -0.1480383648
O  O21  1  0.80260000  0.87890000  0.19180000  1.0 -0.4918784473
O  O22  1  0.90630000  0.97600000  0.12830000  1.0 -0.5753606233
O  O23  1  0.64550000  0.96900000  0.17250000  1.0 -0.140241357
O  O24  1  0.95050000  0.89050000  0.96620000  1.0 -0.5594057116
O  O25  1  0.97350000  0.79070000  0.06130000  1.0 -0.549912003
O  O26  1  0.03050000  0.68710000  0.93440000  1.0 -0.1860344309
O  O27  1  0.95230000  0.72310000  0.23620000  1.0 -0.5725850139
O  O28  1  0.99260000  0.60960000  0.30520000  1.0 -0.5396223638
O  O29  1  0.08670000  0.69210000  0.39540000  1.0 -0.1772362414
O  O30  1  0.73690000  0.70620000  0.71600000  1.0 -0.1480383648
O  O31  1  0.61280000  0.47790000  0.90360000  1.0 -0.1713748213
O  O32  1  0.72550000  0.68400000  0.92140000  1.0 -0.1992679603
O  O33  1  0.47800000  0.60240000  0.79440000  1.0 -0.1860344309
O  O34  1  0.07750000  0.10170000  0.69230000  1.0 -0.3192114133
