# DDEC6 charges by PACMAN v1.1 (https://github.com/mtap-research/PACMAN-charge/)
data_ZEYTAB01_FSR_pacman
_symmetry_space_group_name_H-M   'P 1'
_cell_length_a   13.85470000
_cell_length_b   13.85470000
_cell_length_c   24.79540000
_cell_angle_alpha   90.00000000
_cell_angle_beta   90.00000000
_cell_angle_gamma   90.00000000
_symmetry_Int_Tables_number   1
_chemical_formula_structural   FeH24C31S2(N3O4)2
_chemical_formula_sum   'Fe4 H96 C124 S8 N24 O32'
_cell_volume   4759.54427736
_cell_formula_units_Z   4
loop_
 _symmetry_equiv_pos_site_id
 _symmetry_equiv_pos_as_xyz
  1  'x, y, z'
loop_
 _atom_site_type_symbol
 _atom_site_label
 _atom_site_symmetry_multiplicity
 _atom_site_fract_x
 _atom_site_fract_y
 _atom_site_fract_z
 _atom_site_occupancy
 _atom_site_charge
Fe  Fe1  1  0.00000000  0.00000000  0.63556000  1.0 0.681509169
Fe  Fe2  1  0.50000000  0.50000000  0.13556000  1.0 0.681509169
Fe  Fe3  1  0.50000000  0.50000000  0.86444000  1.0 0.681509169
Fe  Fe4  1  0.00000000  0.00000000  0.36444000  1.0 0.681509169
H  H1  1  0.26450000  0.96180000  0.48850000  1.0 0.1408176065
H  H2  1  0.12790000  0.92280000  0.53490000  1.0 0.1010757607
H  H3  1  0.12770000  0.17240000  0.60880000  1.0 0.1083090426
H  H4  1  0.26370000  0.21990000  0.56270000  1.0 0.1408176065
H  H5  1  0.46130000  0.14200000  0.39880000  1.0 0.1010757607
H  H6  1  0.53340000  0.10350000  0.44290000  1.0 0.1083090426
H  H7  1  0.39500000  0.03500000  0.33030000  1.0 0.1083090426
H  H8  1  0.35810000  0.96050000  0.37340000  1.0 0.1083090426
H  H9  1  0.50430000  0.83250000  0.23230000  1.0 0.1408176065
H  H10  1  0.54700000  0.71490000  0.17200000  1.0 0.1083090426
H  H11  1  0.37130000  0.53030000  0.23660000  1.0 0.1083090426
H  H12  1  0.32250000  0.64350000  0.29990000  1.0 0.1408176065
H  H13  1  0.73550000  0.03820000  0.48850000  1.0 0.1408176065
H  H14  1  0.87210000  0.07720000  0.53490000  1.0 0.1010757607
H  H15  1  0.87230000  0.82760000  0.60880000  1.0 0.1083090426
H  H16  1  0.73630000  0.78010000  0.56270000  1.0 0.1408176065
H  H17  1  0.53870000  0.85800000  0.39880000  1.0 0.1010757607
H  H18  1  0.46660000  0.89650000  0.44290000  1.0 0.1083090426
H  H19  1  0.60500000  0.96500000  0.33030000  1.0 0.1083090426
H  H20  1  0.64190000  0.03950000  0.37340000  1.0 0.1083090426
H  H21  1  0.49570000  0.16750000  0.23230000  1.0 0.1408176065
H  H22  1  0.45300000  0.28510000  0.17200000  1.0 0.1083090426
H  H23  1  0.62870000  0.46970000  0.23660000  1.0 0.1083090426
H  H24  1  0.67750000  0.35650000  0.29990000  1.0 0.1408176065
H  H25  1  0.53820000  0.76450000  0.98850000  1.0 0.1408176065
H  H26  1  0.57720000  0.62790000  0.03490000  1.0 0.1010757607
H  H27  1  0.32760000  0.62770000  0.10880000  1.0 0.1083090426
H  H28  1  0.28010000  0.76370000  0.06270000  1.0 0.1408176065
H  H29  1  0.35800000  0.96130000  0.89880000  1.0 0.1010757607
H  H30  1  0.39650000  0.03340000  0.94290000  1.0 0.1083090426
H  H31  1  0.46500000  0.89500000  0.83030000  1.0 0.1083090426
H  H32  1  0.53950000  0.85810000  0.87340000  1.0 0.1083090426
H  H33  1  0.66750000  0.00430000  0.73230000  1.0 0.1408176065
H  H34  1  0.78510000  0.04700000  0.67200000  1.0 0.1083090426
H  H35  1  0.96970000  0.87130000  0.73660000  1.0 0.1083090426
H  H36  1  0.85650000  0.82250000  0.79990000  1.0 0.1408176065
H  H37  1  0.46180000  0.23550000  0.98850000  1.0 0.1408176065
H  H38  1  0.42280000  0.37210000  0.03490000  1.0 0.1010757607
H  H39  1  0.67240000  0.37230000  0.10880000  1.0 0.1083090426
H  H40  1  0.71990000  0.23630000  0.06270000  1.0 0.1408176065
H  H41  1  0.64200000  0.03870000  0.89880000  1.0 0.1010757607
H  H42  1  0.60350000  0.96660000  0.94290000  1.0 0.1083090426
H  H43  1  0.53500000  0.10500000  0.83030000  1.0 0.1083090426
H  H44  1  0.46050000  0.14190000  0.87340000  1.0 0.1083090426
H  H45  1  0.33250000  0.99570000  0.73230000  1.0 0.1408176065
H  H46  1  0.21490000  0.95300000  0.67200000  1.0 0.1083090426
H  H47  1  0.03030000  0.12870000  0.73660000  1.0 0.1083090426
H  H48  1  0.14350000  0.17750000  0.79990000  1.0 0.1408176065
H  H49  1  0.23550000  0.53820000  0.01150000  1.0 0.1408176065
H  H50  1  0.37210000  0.57720000  0.96510000  1.0 0.1010757607
H  H51  1  0.37230000  0.32760000  0.89120000  1.0 0.1083090426
H  H52  1  0.23630000  0.28010000  0.93730000  1.0 0.1408176065
H  H53  1  0.03870000  0.35800000  0.10120000  1.0 0.1010757607
H  H54  1  0.96660000  0.39650000  0.05710000  1.0 0.1083090426
H  H55  1  0.10500000  0.46500000  0.16970000  1.0 0.1083090426
H  H56  1  0.14190000  0.53950000  0.12660000  1.0 0.1083090426
H  H57  1  0.99570000  0.66750000  0.26770000  1.0 0.1408176065
H  H58  1  0.95300000  0.78510000  0.32800000  1.0 0.1083090426
H  H59  1  0.12870000  0.96970000  0.26340000  1.0 0.1083090426
H  H60  1  0.17750000  0.85650000  0.20010000  1.0 0.1408176065
H  H61  1  0.76450000  0.46180000  0.01150000  1.0 0.1408176065
H  H62  1  0.62790000  0.42280000  0.96510000  1.0 0.1010757607
H  H63  1  0.62770000  0.67240000  0.89120000  1.0 0.1083090426
H  H64  1  0.76370000  0.71990000  0.93730000  1.0 0.1408176065
H  H65  1  0.96130000  0.64200000  0.10120000  1.0 0.1010757607
H  H66  1  0.03340000  0.60350000  0.05710000  1.0 0.1083090426
H  H67  1  0.89500000  0.53500000  0.16970000  1.0 0.1083090426
H  H68  1  0.85810000  0.46050000  0.12660000  1.0 0.1083090426
H  H69  1  0.00430000  0.33250000  0.26770000  1.0 0.1408176065
H  H70  1  0.04700000  0.21490000  0.32800000  1.0 0.1083090426
H  H71  1  0.87130000  0.03030000  0.26340000  1.0 0.1083090426
H  H72  1  0.82250000  0.14350000  0.20010000  1.0 0.1408176065
H  H73  1  0.96180000  0.73550000  0.51150000  1.0 0.1408176065
H  H74  1  0.92280000  0.87210000  0.46510000  1.0 0.1010757607
H  H75  1  0.17240000  0.87230000  0.39120000  1.0 0.1083090426
H  H76  1  0.21990000  0.73630000  0.43730000  1.0 0.1408176065
H  H77  1  0.14200000  0.53870000  0.60120000  1.0 0.1010757607
H  H78  1  0.10350000  0.46660000  0.55710000  1.0 0.1083090426
H  H79  1  0.03500000  0.60500000  0.66970000  1.0 0.1083090426
H  H80  1  0.96050000  0.64190000  0.62660000  1.0 0.1083090426
H  H81  1  0.83250000  0.49570000  0.76770000  1.0 0.1408176065
H  H82  1  0.71490000  0.45300000  0.82800000  1.0 0.1083090426
H  H83  1  0.53030000  0.62870000  0.76340000  1.0 0.1083090426
H  H84  1  0.64350000  0.67750000  0.70010000  1.0 0.1408176065
H  H85  1  0.03820000  0.26450000  0.51150000  1.0 0.1408176065
H  H86  1  0.07720000  0.12790000  0.46510000  1.0 0.1010757607
H  H87  1  0.82760000  0.12770000  0.39120000  1.0 0.1083090426
H  H88  1  0.78010000  0.26370000  0.43730000  1.0 0.1408176065
H  H89  1  0.85800000  0.46130000  0.60120000  1.0 0.1010757607
H  H90  1  0.89650000  0.53340000  0.55710000  1.0 0.1083090426
H  H91  1  0.96500000  0.39500000  0.66970000  1.0 0.1083090426
H  H92  1  0.03950000  0.35810000  0.62660000  1.0 0.1083090426
H  H93  1  0.16750000  0.50430000  0.76770000  1.0 0.1408176065
H  H94  1  0.28510000  0.54700000  0.82800000  1.0 0.1083090426
H  H95  1  0.46970000  0.37130000  0.76340000  1.0 0.1083090426
H  H96  1  0.35650000  0.32250000  0.70010000  1.0 0.1408176065
C  C1  1  0.11490000  0.81100000  0.62790000  1.0 0.2526084205
C  C2  1  0.23770000  0.00580000  0.51250000  1.0 -0.1617854608
C  C3  1  0.15610000  0.98280000  0.54090000  1.0 0.06885381
C  C4  1  0.15540000  0.12990000  0.58430000  1.0 0.091288658
C  C5  1  0.23740000  0.15910000  0.55670000  1.0 -0.1497654131
C  C6  1  0.27990000  0.09560000  0.51990000  1.0 -0.0072742673
C  C7  1  0.36880000  0.12570000  0.49190000  1.0 0.4980295247
C  C8  1  0.47770000  0.08690000  0.42110000  1.0 -0.0752934979
C  C9  1  0.41250000  0.97800000  0.35080000  1.0 -0.0752934979
C  C10  1  0.38090000  0.82060000  0.31580000  1.0 0.4980295247
C  C11  1  0.40920000  0.75000000  0.27390000  1.0 5.96684e-05
C  C12  1  0.47650000  0.77150000  0.23440000  1.0 -0.1617854608
C  C13  1  0.50100000  0.70000000  0.19800000  1.0 0.091288658
C  C14  1  0.39830000  0.59170000  0.23570000  1.0 0.091288658
C  C15  1  0.36890000  0.65960000  0.27430000  1.0 -0.1497654131
C  C16  1  0.88510000  0.18900000  0.62790000  1.0 0.2526084205
C  C17  1  0.76230000  0.99420000  0.51250000  1.0 -0.1617854608
C  C18  1  0.84390000  0.01720000  0.54090000  1.0 0.06885381
C  C19  1  0.84460000  0.87010000  0.58430000  1.0 0.091288658
C  C20  1  0.76260000  0.84090000  0.55670000  1.0 -0.1497654131
C  C21  1  0.72010000  0.90440000  0.51990000  1.0 -0.0072742673
C  C22  1  0.63120000  0.87430000  0.49190000  1.0 0.4980295247
C  C23  1  0.52230000  0.91310000  0.42110000  1.0 -0.0752934979
C  C24  1  0.58750000  0.02200000  0.35080000  1.0 -0.0752934979
C  C25  1  0.61910000  0.17940000  0.31580000  1.0 0.4980295247
C  C26  1  0.59080000  0.25000000  0.27390000  1.0 5.96684e-05
C  C27  1  0.52350000  0.22850000  0.23440000  1.0 -0.1617854608
C  C28  1  0.49900000  0.30000000  0.19800000  1.0 0.091288658
C  C29  1  0.60170000  0.40830000  0.23570000  1.0 0.091288658
C  C30  1  0.63110000  0.34040000  0.27430000  1.0 -0.1497654131
C  C31  1  0.68900000  0.61490000  0.12790000  1.0 0.2526084205
C  C32  1  0.49420000  0.73770000  0.01250000  1.0 -0.1617854608
C  C33  1  0.51720000  0.65610000  0.04090000  1.0 0.06885381
C  C34  1  0.37010000  0.65540000  0.08430000  1.0 0.091288658
C  C35  1  0.34090000  0.73740000  0.05670000  1.0 -0.1497654131
C  C36  1  0.40440000  0.77990000  0.01990000  1.0 -0.0072742673
C  C37  1  0.37430000  0.86880000  0.99190000  1.0 0.4980295247
C  C38  1  0.41310000  0.97770000  0.92110000  1.0 -0.0752934979
C  C39  1  0.52200000  0.91250000  0.85080000  1.0 -0.0752934979
C  C40  1  0.67940000  0.88090000  0.81580000  1.0 0.4980295247
C  C41  1  0.75000000  0.90920000  0.77390000  1.0 5.96684e-05
C  C42  1  0.72850000  0.97650000  0.73440000  1.0 -0.1617854608
C  C43  1  0.80000000  0.00100000  0.69800000  1.0 0.091288658
C  C44  1  0.90830000  0.89830000  0.73570000  1.0 0.091288658
C  C45  1  0.84040000  0.86890000  0.77430000  1.0 -0.1497654131
C  C46  1  0.31100000  0.38510000  0.12790000  1.0 0.2526084205
C  C47  1  0.50580000  0.26230000  0.01250000  1.0 -0.1617854608
C  C48  1  0.48280000  0.34390000  0.04090000  1.0 0.06885381
C  C49  1  0.62990000  0.34460000  0.08430000  1.0 0.091288658
C  C50  1  0.65910000  0.26260000  0.05670000  1.0 -0.1497654131
C  C51  1  0.59560000  0.22010000  0.01990000  1.0 -0.0072742673
C  C52  1  0.62570000  0.13120000  0.99190000  1.0 0.4980295247
C  C53  1  0.58690000  0.02230000  0.92110000  1.0 -0.0752934979
C  C54  1  0.47800000  0.08750000  0.85080000  1.0 -0.0752934979
C  C55  1  0.32060000  0.11910000  0.81580000  1.0 0.4980295247
C  C56  1  0.25000000  0.09080000  0.77390000  1.0 5.96684e-05
C  C57  1  0.27150000  0.02350000  0.73440000  1.0 -0.1617854608
C  C58  1  0.20000000  0.99900000  0.69800000  1.0 0.091288658
C  C59  1  0.09170000  0.10170000  0.73570000  1.0 0.091288658
C  C60  1  0.15960000  0.13110000  0.77430000  1.0 -0.1497654131
C  C61  1  0.50000000  0.00000000  0.38610000  1.0 0.06885381
C  C62  1  0.50000000  0.00000000  0.88610000  1.0 0.06885381
C  C63  1  0.38510000  0.68900000  0.87210000  1.0 0.2526084205
C  C64  1  0.26230000  0.49420000  0.98750000  1.0 -0.1617854608
C  C65  1  0.34390000  0.51720000  0.95910000  1.0 0.06885381
C  C66  1  0.34460000  0.37010000  0.91570000  1.0 0.091288658
C  C67  1  0.26260000  0.34090000  0.94330000  1.0 -0.1497654131
C  C68  1  0.22010000  0.40440000  0.98010000  1.0 -0.0072742673
C  C69  1  0.13120000  0.37430000  0.00810000  1.0 0.4980295247
C  C70  1  0.02230000  0.41310000  0.07890000  1.0 -0.0752934979
C  C71  1  0.08750000  0.52200000  0.14920000  1.0 -0.0752934979
C  C72  1  0.11910000  0.67940000  0.18420000  1.0 0.4980295247
C  C73  1  0.09080000  0.75000000  0.22610000  1.0 5.96684e-05
C  C74  1  0.02350000  0.72850000  0.26560000  1.0 -0.1617854608
C  C75  1  0.99900000  0.80000000  0.30200000  1.0 0.091288658
C  C76  1  0.10170000  0.90830000  0.26430000  1.0 0.091288658
C  C77  1  0.13110000  0.84040000  0.22570000  1.0 -0.1497654131
C  C78  1  0.61490000  0.31100000  0.87210000  1.0 0.2526084205
C  C79  1  0.73770000  0.50580000  0.98750000  1.0 -0.1617854608
C  C80  1  0.65610000  0.48280000  0.95910000  1.0 0.06885381
C  C81  1  0.65540000  0.62990000  0.91570000  1.0 0.091288658
C  C82  1  0.73740000  0.65910000  0.94330000  1.0 -0.1497654131
C  C83  1  0.77990000  0.59560000  0.98010000  1.0 -0.0072742673
C  C84  1  0.86880000  0.62570000  0.00810000  1.0 0.4980295247
C  C85  1  0.97770000  0.58690000  0.07890000  1.0 -0.0752934979
C  C86  1  0.91250000  0.47800000  0.14920000  1.0 -0.0752934979
C  C87  1  0.88090000  0.32060000  0.18420000  1.0 0.4980295247
C  C88  1  0.90920000  0.25000000  0.22610000  1.0 5.96684e-05
C  C89  1  0.97650000  0.27150000  0.26560000  1.0 -0.1617854608
C  C90  1  0.00100000  0.20000000  0.30200000  1.0 0.091288658
C  C91  1  0.89830000  0.09170000  0.26430000  1.0 0.091288658
C  C92  1  0.86890000  0.15960000  0.22570000  1.0 -0.1497654131
C  C93  1  0.81100000  0.88510000  0.37210000  1.0 0.2526084205
C  C94  1  0.00580000  0.76230000  0.48750000  1.0 -0.1617854608
C  C95  1  0.98280000  0.84390000  0.45910000  1.0 0.06885381
C  C96  1  0.12990000  0.84460000  0.41570000  1.0 0.091288658
C  C97  1  0.15910000  0.76260000  0.44330000  1.0 -0.1497654131
C  C98  1  0.09560000  0.72010000  0.48010000  1.0 -0.0072742673
C  C99  1  0.12570000  0.63120000  0.50810000  1.0 0.4980295247
C  C100  1  0.08690000  0.52230000  0.57890000  1.0 -0.0752934979
C  C101  1  0.97800000  0.58750000  0.64920000  1.0 -0.0752934979
C  C102  1  0.82060000  0.61910000  0.68420000  1.0 0.4980295247
C  C103  1  0.75000000  0.59080000  0.72610000  1.0 5.96684e-05
C  C104  1  0.77150000  0.52350000  0.76560000  1.0 -0.1617854608
C  C105  1  0.70000000  0.49900000  0.80200000  1.0 0.091288658
C  C106  1  0.59170000  0.60170000  0.76430000  1.0 0.091288658
C  C107  1  0.65960000  0.63110000  0.72570000  1.0 -0.1497654131
C  C108  1  0.18900000  0.11490000  0.37210000  1.0 0.2526084205
C  C109  1  0.99420000  0.23770000  0.48750000  1.0 -0.1617854608
C  C110  1  0.01720000  0.15610000  0.45910000  1.0 0.06885381
C  C111  1  0.87010000  0.15540000  0.41570000  1.0 0.091288658
C  C112  1  0.84090000  0.23740000  0.44330000  1.0 -0.1497654131
C  C113  1  0.90440000  0.27990000  0.48010000  1.0 -0.0072742673
C  C114  1  0.87430000  0.36880000  0.50810000  1.0 0.4980295247
C  C115  1  0.91310000  0.47770000  0.57890000  1.0 -0.0752934979
C  C116  1  0.02200000  0.41250000  0.64920000  1.0 -0.0752934979
C  C117  1  0.17940000  0.38090000  0.68420000  1.0 0.4980295247
C  C118  1  0.25000000  0.40920000  0.72610000  1.0 5.96684e-05
C  C119  1  0.22850000  0.47650000  0.76560000  1.0 -0.1617854608
C  C120  1  0.30000000  0.50100000  0.80200000  1.0 0.091288658
C  C121  1  0.40830000  0.39830000  0.76430000  1.0 0.091288658
C  C122  1  0.34040000  0.36890000  0.72570000  1.0 -0.1497654131
C  C123  1  0.00000000  0.50000000  0.11390000  1.0 0.06885381
C  C124  1  0.00000000  0.50000000  0.61390000  1.0 0.06885381
S  S1  1  0.20948000  0.74710000  0.61572000  1.0 -0.3613396565
S  S2  1  0.79052000  0.25290000  0.61572000  1.0 -0.3613396565
S  S3  1  0.75290000  0.70948000  0.11572000  1.0 -0.3613396565
S  S4  1  0.24710000  0.29052000  0.11572000  1.0 -0.3613396565
S  S5  1  0.29052000  0.75290000  0.88428000  1.0 -0.3613396565
S  S6  1  0.70948000  0.24710000  0.88428000  1.0 -0.3613396565
S  S7  1  0.74710000  0.79052000  0.38428000  1.0 -0.3613396565
S  S8  1  0.25290000  0.20948000  0.38428000  1.0 -0.3613396565
N  N1  1  0.46380000  0.61150000  0.19760000  1.0 -0.2236743661
N  N2  1  0.11390000  0.04310000  0.57730000  1.0 -0.2474538403
N  N3  1  0.04950000  0.85820000  0.63487000  1.0 -0.4641076157
N  N4  1  0.53620000  0.38850000  0.19760000  1.0 -0.2236743661
N  N5  1  0.88610000  0.95690000  0.57730000  1.0 -0.2474538403
N  N6  1  0.95050000  0.14180000  0.63487000  1.0 -0.4641076157
N  N7  1  0.88850000  0.96380000  0.69760000  1.0 -0.2236743661
N  N8  1  0.45690000  0.61390000  0.07730000  1.0 -0.2474538403
N  N9  1  0.64180000  0.54950000  0.13487000  1.0 -0.4641076157
N  N10  1  0.11150000  0.03620000  0.69760000  1.0 -0.2236743661
N  N11  1  0.54310000  0.38610000  0.07730000  1.0 -0.2474538403
N  N12  1  0.35820000  0.45050000  0.13487000  1.0 -0.4641076157
N  N13  1  0.03620000  0.88850000  0.30240000  1.0 -0.2236743661
N  N14  1  0.38610000  0.45690000  0.92270000  1.0 -0.2474538403
N  N15  1  0.45050000  0.64180000  0.86513000  1.0 -0.4641076157
N  N16  1  0.96380000  0.11150000  0.30240000  1.0 -0.2236743661
N  N17  1  0.61390000  0.54310000  0.92270000  1.0 -0.2474538403
N  N18  1  0.54950000  0.35820000  0.86513000  1.0 -0.4641076157
N  N19  1  0.61150000  0.53620000  0.80240000  1.0 -0.2236743661
N  N20  1  0.04310000  0.88610000  0.42270000  1.0 -0.2474538403
N  N21  1  0.85820000  0.95050000  0.36513000  1.0 -0.4641076157
N  N22  1  0.38850000  0.46380000  0.80240000  1.0 -0.2236743661
N  N23  1  0.95690000  0.11390000  0.42270000  1.0 -0.2474538403
N  N24  1  0.14180000  0.04950000  0.36513000  1.0 -0.4641076157
O  O1  1  0.41230000  0.19850000  0.50138000  1.0 -0.4264017025
O  O2  1  0.39700000  0.06110000  0.45522000  1.0 -0.2236743661
O  O3  1  0.43410000  0.89980000  0.31433000  1.0 -0.20641206
O  O4  1  0.31750000  0.80630000  0.34750000  1.0 -0.4502706508
O  O5  1  0.58770000  0.80150000  0.50138000  1.0 -0.4264017025
O  O6  1  0.60300000  0.93890000  0.45522000  1.0 -0.2236743661
O  O7  1  0.56590000  0.10020000  0.31433000  1.0 -0.20641206
O  O8  1  0.68250000  0.19370000  0.34750000  1.0 -0.4502706508
O  O9  1  0.30150000  0.91230000  0.00138000  1.0 -0.423211498
O  O10  1  0.43890000  0.89700000  0.95522000  1.0 -0.2236743661
O  O11  1  0.60020000  0.93410000  0.81433000  1.0 -0.20641206
O  O12  1  0.69370000  0.81750000  0.84750000  1.0 -0.4502706508
O  O13  1  0.69850000  0.08770000  0.00138000  1.0 -0.423211498
O  O14  1  0.56110000  0.10300000  0.95522000  1.0 -0.2236743661
O  O15  1  0.39980000  0.06590000  0.81433000  1.0 -0.20641206
O  O16  1  0.30630000  0.18250000  0.84750000  1.0 -0.4502706508
O  O17  1  0.08770000  0.30150000  0.99862000  1.0 -0.423211498
O  O18  1  0.10300000  0.43890000  0.04478000  1.0 -0.2236743661
O  O19  1  0.06590000  0.60020000  0.18567000  1.0 -0.20641206
O  O20  1  0.18250000  0.69370000  0.15250000  1.0 -0.4502706508
O  O21  1  0.91230000  0.69850000  0.99862000  1.0 -0.423211498
O  O22  1  0.89700000  0.56110000  0.04478000  1.0 -0.2236743661
O  O23  1  0.93410000  0.39980000  0.18567000  1.0 -0.20641206
O  O24  1  0.81750000  0.30630000  0.15250000  1.0 -0.4502706508
O  O25  1  0.19850000  0.58770000  0.49862000  1.0 -0.423211498
O  O26  1  0.06110000  0.60300000  0.54478000  1.0 -0.2236743661
O  O27  1  0.89980000  0.56590000  0.68567000  1.0 -0.20641206
O  O28  1  0.80630000  0.68250000  0.65250000  1.0 -0.4502706508
O  O29  1  0.80150000  0.41230000  0.49862000  1.0 -0.423211498
O  O30  1  0.93890000  0.39700000  0.54478000  1.0 -0.2236743661
O  O31  1  0.10020000  0.43410000  0.68567000  1.0 -0.20641206
O  O32  1  0.19370000  0.31750000  0.65250000  1.0 -0.4502706508
