# DDEC6 charges by PACMAN v1.1 (https://github.com/mtap-research/PACMAN-charge/)
data_ZEYTAB_ASR_pacman
_symmetry_space_group_name_H-M   'P 1'
_cell_length_a   13.91600000
_cell_length_b   13.91600000
_cell_length_c   24.88600000
_cell_angle_alpha   90.00000000
_cell_angle_beta   90.00000000
_cell_angle_gamma   90.00000000
_symmetry_Int_Tables_number   1
_chemical_formula_structural   FeH24C31S2(N3O4)2
_chemical_formula_sum   'Fe4 H96 C124 S8 N24 O32'
_cell_volume   4819.29972362
_cell_formula_units_Z   4
loop_
 _symmetry_equiv_pos_site_id
 _symmetry_equiv_pos_as_xyz
  1  'x, y, z'
loop_
 _atom_site_type_symbol
 _atom_site_label
 _atom_site_symmetry_multiplicity
 _atom_site_fract_x
 _atom_site_fract_y
 _atom_site_fract_z
 _atom_site_occupancy
 _atom_site_charge
Fe  Fe1  1  0.00000000  0.00000000  0.36289000  1.0 0.6737422161
Fe  Fe2  1  0.50000000  0.50000000  0.86289000  1.0 0.6737422161
Fe  Fe3  1  0.50000000  0.50000000  0.13711000  1.0 0.6737422161
Fe  Fe4  1  0.00000000  0.00000000  0.63711000  1.0 0.6737422161
H  H1  1  0.45160000  0.71410000  0.82600000  1.0 0.1079774146
H  H2  1  0.49120000  0.82940000  0.76480000  1.0 0.1401630371
H  H3  1  0.67740000  0.64660000  0.70020000  1.0 0.1401630371
H  H4  1  0.63050000  0.53460000  0.76320000  1.0 0.1079774146
H  H5  1  0.60530000  0.03190000  0.66820000  1.0 0.1000571764
H  H6  1  0.64050000  0.95750000  0.62500000  1.0 0.1000571764
H  H7  1  0.45840000  0.85940000  0.60000000  1.0 0.1000571764
H  H8  1  0.53110000  0.89590000  0.55600000  1.0 0.1079774146
H  H9  1  0.26170000  0.03810000  0.51090000  1.0 0.1401630371
H  H10  1  0.12700000  0.07640000  0.46330000  1.0 0.1000571764
H  H11  1  0.12910000  0.82980000  0.39080000  1.0 0.1079774146
H  H12  1  0.26340000  0.78340000  0.43640000  1.0 0.1401630371
H  H13  1  0.54840000  0.28590000  0.82600000  1.0 0.1079774146
H  H14  1  0.50880000  0.17060000  0.76480000  1.0 0.1401630371
H  H15  1  0.32260000  0.35340000  0.70020000  1.0 0.1401630371
H  H16  1  0.36950000  0.46540000  0.76320000  1.0 0.1079774146
H  H17  1  0.39470000  0.96810000  0.66820000  1.0 0.1000571764
H  H18  1  0.35950000  0.04250000  0.62500000  1.0 0.1000571764
H  H19  1  0.54160000  0.14060000  0.60000000  1.0 0.1000571764
H  H20  1  0.46890000  0.10410000  0.55600000  1.0 0.1079774146
H  H21  1  0.73830000  0.96190000  0.51090000  1.0 0.1401630371
H  H22  1  0.87300000  0.92360000  0.46330000  1.0 0.1000571764
H  H23  1  0.87090000  0.17020000  0.39080000  1.0 0.1079774146
H  H24  1  0.73660000  0.21660000  0.43640000  1.0 0.1401630371
H  H25  1  0.78590000  0.95160000  0.32600000  1.0 0.1079774146
H  H26  1  0.67060000  0.99120000  0.26480000  1.0 0.1401630371
H  H27  1  0.85340000  0.17740000  0.20020000  1.0 0.1401630371
H  H28  1  0.96540000  0.13050000  0.26320000  1.0 0.1079774146
H  H29  1  0.46810000  0.10530000  0.16820000  1.0 0.1000571764
H  H30  1  0.54250000  0.14050000  0.12500000  1.0 0.1000571764
H  H31  1  0.64060000  0.95840000  0.10000000  1.0 0.1000571764
H  H32  1  0.60410000  0.03110000  0.05600000  1.0 0.1079774146
H  H33  1  0.46190000  0.76170000  0.01090000  1.0 0.1401630371
H  H34  1  0.42360000  0.62700000  0.96330000  1.0 0.1000571764
H  H35  1  0.67020000  0.62910000  0.89080000  1.0 0.1079774146
H  H36  1  0.71660000  0.76340000  0.93640000  1.0 0.1401630371
H  H37  1  0.21410000  0.04840000  0.32600000  1.0 0.1079774146
H  H38  1  0.32940000  0.00880000  0.26480000  1.0 0.1401630371
H  H39  1  0.14660000  0.82260000  0.20020000  1.0 0.1401630371
H  H40  1  0.03460000  0.86950000  0.26320000  1.0 0.1079774146
H  H41  1  0.53190000  0.89470000  0.16820000  1.0 0.1000571764
H  H42  1  0.45750000  0.85950000  0.12500000  1.0 0.1000571764
H  H43  1  0.35940000  0.04160000  0.10000000  1.0 0.1000571764
H  H44  1  0.39590000  0.96890000  0.05600000  1.0 0.1079774146
H  H45  1  0.53810000  0.23830000  0.01090000  1.0 0.1401630371
H  H46  1  0.57640000  0.37300000  0.96330000  1.0 0.1000571764
H  H47  1  0.32980000  0.37090000  0.89080000  1.0 0.1079774146
H  H48  1  0.28340000  0.23660000  0.93640000  1.0 0.1401630371
H  H49  1  0.04840000  0.78590000  0.67400000  1.0 0.1079774146
H  H50  1  0.00880000  0.67060000  0.73520000  1.0 0.1401630371
H  H51  1  0.82260000  0.85340000  0.79980000  1.0 0.1401630371
H  H52  1  0.86950000  0.96540000  0.73680000  1.0 0.1079774146
H  H53  1  0.89470000  0.46810000  0.83180000  1.0 0.1000571764
H  H54  1  0.85950000  0.54250000  0.87500000  1.0 0.1000571764
H  H55  1  0.04160000  0.64060000  0.90000000  1.0 0.1000571764
H  H56  1  0.96890000  0.60410000  0.94400000  1.0 0.1079774146
H  H57  1  0.23830000  0.46190000  0.98910000  1.0 0.1401630371
H  H58  1  0.37300000  0.42360000  0.03670000  1.0 0.1000571764
H  H59  1  0.37090000  0.67020000  0.10920000  1.0 0.1079774146
H  H60  1  0.23660000  0.71660000  0.06360000  1.0 0.1401630371
H  H61  1  0.95160000  0.21410000  0.67400000  1.0 0.1079774146
H  H62  1  0.99120000  0.32940000  0.73520000  1.0 0.1401630371
H  H63  1  0.17740000  0.14660000  0.79980000  1.0 0.1401630371
H  H64  1  0.13050000  0.03460000  0.73680000  1.0 0.1079774146
H  H65  1  0.10530000  0.53190000  0.83180000  1.0 0.1000571764
H  H66  1  0.14050000  0.45750000  0.87500000  1.0 0.1000571764
H  H67  1  0.95840000  0.35940000  0.90000000  1.0 0.1000571764
H  H68  1  0.03110000  0.39590000  0.94400000  1.0 0.1079774146
H  H69  1  0.76170000  0.53810000  0.98910000  1.0 0.1401630371
H  H70  1  0.62700000  0.57640000  0.03670000  1.0 0.1000571764
H  H71  1  0.62910000  0.32980000  0.10920000  1.0 0.1079774146
H  H72  1  0.76340000  0.28340000  0.06360000  1.0 0.1401630371
H  H73  1  0.71410000  0.54840000  0.17400000  1.0 0.1079774146
H  H74  1  0.82940000  0.50880000  0.23520000  1.0 0.1401630371
H  H75  1  0.64660000  0.32260000  0.29980000  1.0 0.1401630371
H  H76  1  0.53460000  0.36950000  0.23680000  1.0 0.1079774146
H  H77  1  0.03190000  0.39470000  0.33180000  1.0 0.1000571764
H  H78  1  0.95750000  0.35950000  0.37500000  1.0 0.1000571764
H  H79  1  0.85940000  0.54160000  0.40000000  1.0 0.1000571764
H  H80  1  0.89590000  0.46890000  0.44400000  1.0 0.1079774146
H  H81  1  0.03810000  0.73830000  0.48910000  1.0 0.1401630371
H  H82  1  0.07640000  0.87300000  0.53670000  1.0 0.1000571764
H  H83  1  0.82980000  0.87090000  0.60920000  1.0 0.1079774146
H  H84  1  0.78340000  0.73660000  0.56360000  1.0 0.1401630371
H  H85  1  0.28590000  0.45160000  0.17400000  1.0 0.1079774146
H  H86  1  0.17060000  0.49120000  0.23520000  1.0 0.1401630371
H  H87  1  0.35340000  0.67740000  0.29980000  1.0 0.1401630371
H  H88  1  0.46540000  0.63050000  0.23680000  1.0 0.1079774146
H  H89  1  0.96810000  0.60530000  0.33180000  1.0 0.1000571764
H  H90  1  0.04250000  0.64050000  0.37500000  1.0 0.1000571764
H  H91  1  0.14060000  0.45840000  0.40000000  1.0 0.1000571764
H  H92  1  0.10410000  0.53110000  0.44400000  1.0 0.1079774146
H  H93  1  0.96190000  0.26170000  0.48910000  1.0 0.1401630371
H  H94  1  0.92360000  0.12700000  0.53670000  1.0 0.1000571764
H  H95  1  0.17020000  0.12910000  0.60920000  1.0 0.1079774146
H  H96  1  0.21660000  0.26340000  0.56360000  1.0 0.1401630371
C  C1  1  0.49730000  0.69950000  0.79999000  1.0 0.0830952712
C  C2  1  0.52100000  0.76960000  0.76348000  1.0 -0.1590371709
C  C3  1  0.58880000  0.75050000  0.72515000  1.0 0.0035126639
C  C4  1  0.63040000  0.66210000  0.72530000  1.0 -0.1590371709
C  C5  1  0.60160000  0.59480000  0.76366000  1.0 0.0898552687
C  C6  1  0.61820000  0.82090000  0.68337000  1.0 0.4979109429
C  C7  1  0.58670000  0.97580000  0.64755000  1.0 -0.0771730132
C  C8  1  0.47590000  0.91380000  0.57762000  1.0 -0.0771730132
C  C9  1  0.36700000  0.87430000  0.50741000  1.0 0.4979109429
C  C10  1  0.27900000  0.90610000  0.47904000  1.0 0.0035126639
C  C11  1  0.23610000  0.99430000  0.48660000  1.0 -0.1658857352
C  C12  1  0.15530000  0.01660000  0.45779000  1.0 0.0691022545
C  C13  1  0.15620000  0.87230000  0.41531000  1.0 0.0898552687
C  C14  1  0.23700000  0.84380000  0.44246000  1.0 -0.1590371709
C  C15  1  0.88730000  0.81020000  0.37050000  1.0 0.2500119322
C  C16  1  0.50270000  0.30050000  0.79999000  1.0 0.0830952712
C  C17  1  0.47900000  0.23040000  0.76348000  1.0 -0.1590371709
C  C18  1  0.41120000  0.24950000  0.72515000  1.0 0.0035126639
C  C19  1  0.36960000  0.33790000  0.72530000  1.0 -0.1590371709
C  C20  1  0.39840000  0.40520000  0.76366000  1.0 0.0898552687
C  C21  1  0.38180000  0.17910000  0.68337000  1.0 0.4979109429
C  C22  1  0.41330000  0.02420000  0.64755000  1.0 -0.0771730132
C  C23  1  0.52410000  0.08620000  0.57762000  1.0 -0.0771730132
C  C24  1  0.63300000  0.12570000  0.50741000  1.0 0.4979109429
C  C25  1  0.72100000  0.09390000  0.47904000  1.0 0.0035126639
C  C26  1  0.76390000  0.00570000  0.48660000  1.0 -0.1658857352
C  C27  1  0.84470000  0.98340000  0.45779000  1.0 0.0691022545
C  C28  1  0.84380000  0.12770000  0.41531000  1.0 0.0898552687
C  C29  1  0.76300000  0.15620000  0.44246000  1.0 -0.1590371709
C  C30  1  0.11270000  0.18980000  0.37050000  1.0 0.2500119322
C  C31  1  0.80050000  0.99730000  0.29999000  1.0 0.0830952712
C  C32  1  0.73040000  0.02100000  0.26348000  1.0 -0.1590371709
C  C33  1  0.74950000  0.08880000  0.22515000  1.0 0.0035126639
C  C34  1  0.83790000  0.13040000  0.22530000  1.0 -0.1590371709
C  C35  1  0.90520000  0.10160000  0.26366000  1.0 0.0898552687
C  C36  1  0.67910000  0.11820000  0.18337000  1.0 0.4979109429
C  C37  1  0.52420000  0.08670000  0.14755000  1.0 -0.0771730132
C  C38  1  0.58620000  0.97590000  0.07762000  1.0 -0.0771730132
C  C39  1  0.62570000  0.86700000  0.00741000  1.0 0.4979109429
C  C40  1  0.59390000  0.77900000  0.97904000  1.0 0.0035126639
C  C41  1  0.50570000  0.73610000  0.98660000  1.0 -0.1658857352
C  C42  1  0.48340000  0.65530000  0.95779000  1.0 0.0691022545
C  C43  1  0.62770000  0.65620000  0.91531000  1.0 0.0898552687
C  C44  1  0.65620000  0.73700000  0.94246000  1.0 -0.1590371709
C  C45  1  0.68980000  0.38730000  0.87050000  1.0 0.2500119322
C  C46  1  0.19950000  0.00270000  0.29999000  1.0 0.0830952712
C  C47  1  0.26960000  0.97900000  0.26348000  1.0 -0.1590371709
C  C48  1  0.25050000  0.91120000  0.22515000  1.0 0.0035126639
C  C49  1  0.16210000  0.86960000  0.22530000  1.0 -0.1590371709
C  C50  1  0.09480000  0.89840000  0.26366000  1.0 0.0898552687
C  C51  1  0.32090000  0.88180000  0.18337000  1.0 0.4979109429
C  C52  1  0.47580000  0.91330000  0.14755000  1.0 -0.0771730132
C  C53  1  0.41380000  0.02410000  0.07762000  1.0 -0.0771730132
C  C54  1  0.37430000  0.13300000  0.00741000  1.0 0.4979109429
C  C55  1  0.40610000  0.22100000  0.97904000  1.0 0.0035126639
C  C56  1  0.49430000  0.26390000  0.98660000  1.0 -0.1658857352
C  C57  1  0.51660000  0.34470000  0.95779000  1.0 0.0691022545
C  C58  1  0.37230000  0.34380000  0.91531000  1.0 0.0898552687
C  C59  1  0.34380000  0.26300000  0.94246000  1.0 -0.1590371709
C  C60  1  0.31020000  0.61270000  0.87050000  1.0 0.2500119322
C  C61  1  0.50000000  0.00000000  0.61245000  1.0 0.0691022545
C  C62  1  0.50000000  0.00000000  0.11245000  1.0 0.0691022545
C  C63  1  0.00270000  0.80050000  0.70001000  1.0 0.0830952712
C  C64  1  0.97900000  0.73040000  0.73652000  1.0 -0.1590371709
C  C65  1  0.91120000  0.74950000  0.77485000  1.0 0.0035126639
C  C66  1  0.86960000  0.83790000  0.77470000  1.0 -0.1590371709
C  C67  1  0.89840000  0.90520000  0.73634000  1.0 0.0898552687
C  C68  1  0.88180000  0.67910000  0.81663000  1.0 0.4979109429
C  C69  1  0.91330000  0.52420000  0.85245000  1.0 -0.0771730132
C  C70  1  0.02410000  0.58620000  0.92238000  1.0 -0.0771730132
C  C71  1  0.13300000  0.62570000  0.99259000  1.0 0.4979109429
C  C72  1  0.22100000  0.59390000  0.02096000  1.0 0.0035126639
C  C73  1  0.26390000  0.50570000  0.01340000  1.0 -0.1658857352
C  C74  1  0.34470000  0.48340000  0.04221000  1.0 0.0691022545
C  C75  1  0.34380000  0.62770000  0.08469000  1.0 0.0898552687
C  C76  1  0.26300000  0.65620000  0.05754000  1.0 -0.1590371709
C  C77  1  0.61270000  0.68980000  0.12950000  1.0 0.2500119322
C  C78  1  0.99730000  0.19950000  0.70001000  1.0 0.0830952712
C  C79  1  0.02100000  0.26960000  0.73652000  1.0 -0.1590371709
C  C80  1  0.08880000  0.25050000  0.77485000  1.0 0.0035126639
C  C81  1  0.13040000  0.16210000  0.77470000  1.0 -0.1590371709
C  C82  1  0.10160000  0.09480000  0.73634000  1.0 0.0898552687
C  C83  1  0.11820000  0.32090000  0.81663000  1.0 0.4979109429
C  C84  1  0.08670000  0.47580000  0.85245000  1.0 -0.0771730132
C  C85  1  0.97590000  0.41380000  0.92238000  1.0 -0.0771730132
C  C86  1  0.86700000  0.37430000  0.99259000  1.0 0.4979109429
C  C87  1  0.77900000  0.40610000  0.02096000  1.0 0.0035126639
C  C88  1  0.73610000  0.49430000  0.01340000  1.0 -0.1658857352
C  C89  1  0.65530000  0.51660000  0.04221000  1.0 0.0691022545
C  C90  1  0.65620000  0.37230000  0.08469000  1.0 0.0898552687
C  C91  1  0.73700000  0.34380000  0.05754000  1.0 -0.1590371709
C  C92  1  0.38730000  0.31020000  0.12950000  1.0 0.2500119322
C  C93  1  0.69950000  0.50270000  0.20001000  1.0 0.0830952712
C  C94  1  0.76960000  0.47900000  0.23652000  1.0 -0.1590371709
C  C95  1  0.75050000  0.41120000  0.27485000  1.0 0.0035126639
C  C96  1  0.66210000  0.36960000  0.27470000  1.0 -0.1590371709
C  C97  1  0.59480000  0.39840000  0.23634000  1.0 0.0898552687
C  C98  1  0.82090000  0.38180000  0.31663000  1.0 0.4979109429
C  C99  1  0.97580000  0.41330000  0.35245000  1.0 -0.0771730132
C  C100  1  0.91380000  0.52410000  0.42238000  1.0 -0.0771730132
C  C101  1  0.87430000  0.63300000  0.49259000  1.0 0.4979109429
C  C102  1  0.90610000  0.72100000  0.52096000  1.0 0.0035126639
C  C103  1  0.99430000  0.76390000  0.51340000  1.0 -0.1658857352
C  C104  1  0.01660000  0.84470000  0.54221000  1.0 0.0691022545
C  C105  1  0.87230000  0.84380000  0.58469000  1.0 0.0898552687
C  C106  1  0.84380000  0.76300000  0.55754000  1.0 -0.1590371709
C  C107  1  0.81020000  0.11270000  0.62950000  1.0 0.2500119322
C  C108  1  0.30050000  0.49730000  0.20001000  1.0 0.0830952712
C  C109  1  0.23040000  0.52100000  0.23652000  1.0 -0.1590371709
C  C110  1  0.24950000  0.58880000  0.27485000  1.0 0.0035126639
C  C111  1  0.33790000  0.63040000  0.27470000  1.0 -0.1590371709
C  C112  1  0.40520000  0.60160000  0.23634000  1.0 0.0898552687
C  C113  1  0.17910000  0.61820000  0.31663000  1.0 0.4979109429
C  C114  1  0.02420000  0.58670000  0.35245000  1.0 -0.0771730132
C  C115  1  0.08620000  0.47590000  0.42238000  1.0 -0.0771730132
C  C116  1  0.12570000  0.36700000  0.49259000  1.0 0.4979109429
C  C117  1  0.09390000  0.27900000  0.52096000  1.0 0.0035126639
C  C118  1  0.00570000  0.23610000  0.51340000  1.0 -0.1658857352
C  C119  1  0.98340000  0.15530000  0.54221000  1.0 0.0691022545
C  C120  1  0.12770000  0.15620000  0.58469000  1.0 0.0898552687
C  C121  1  0.15620000  0.23700000  0.55754000  1.0 -0.1590371709
C  C122  1  0.18980000  0.88730000  0.62950000  1.0 0.2500119322
C  C123  1  0.00000000  0.50000000  0.88755000  1.0 0.0691022545
C  C124  1  0.00000000  0.50000000  0.38755000  1.0 0.0691022545
S  S1  1  0.79581000  0.74401000  0.38004000  1.0 -0.3668164126
S  S2  1  0.20419000  0.25599000  0.38004000  1.0 -0.3668164126
S  S3  1  0.75599000  0.29581000  0.88004000  1.0 -0.3668164126
S  S4  1  0.24401000  0.70419000  0.88004000  1.0 -0.3668164126
S  S5  1  0.70419000  0.75599000  0.11996000  1.0 -0.3668164126
S  S6  1  0.29581000  0.24401000  0.11996000  1.0 -0.3668164126
S  S7  1  0.74401000  0.20419000  0.61996000  1.0 -0.3668164126
S  S8  1  0.25599000  0.79581000  0.61996000  1.0 -0.3668164126
N  N1  1  0.53580000  0.61200000  0.80034000  1.0 -0.2132664471
N  N2  1  0.11460000  0.95710000  0.42209000  1.0 -0.2297233231
N  N3  1  0.95130000  0.85940000  0.36405000  1.0 -0.4733295366
N  N4  1  0.46420000  0.38800000  0.80034000  1.0 -0.2132664471
N  N5  1  0.88540000  0.04290000  0.42209000  1.0 -0.2297233231
N  N6  1  0.04870000  0.14060000  0.36405000  1.0 -0.4733295366
N  N7  1  0.88800000  0.03580000  0.30034000  1.0 -0.2132664471
N  N8  1  0.54290000  0.61460000  0.92209000  1.0 -0.2297233231
N  N9  1  0.64060000  0.45130000  0.86405000  1.0 -0.4733295366
N  N10  1  0.11200000  0.96420000  0.30034000  1.0 -0.2132664471
N  N11  1  0.45710000  0.38540000  0.92209000  1.0 -0.2297233231
N  N12  1  0.35940000  0.54870000  0.86405000  1.0 -0.4733295366
N  N13  1  0.96420000  0.88800000  0.69966000  1.0 -0.2132664471
N  N14  1  0.38540000  0.54290000  0.07791000  1.0 -0.2297233231
N  N15  1  0.54870000  0.64060000  0.13595000  1.0 -0.4733295366
N  N16  1  0.03580000  0.11200000  0.69966000  1.0 -0.2132664471
N  N17  1  0.61460000  0.45710000  0.07791000  1.0 -0.2297233231
N  N18  1  0.45130000  0.35940000  0.13595000  1.0 -0.4733295366
N  N19  1  0.61200000  0.46420000  0.19966000  1.0 -0.2132664471
N  N20  1  0.95710000  0.88540000  0.57791000  1.0 -0.2297233231
N  N21  1  0.85940000  0.04870000  0.63595000  1.0 -0.4733295366
N  N22  1  0.38800000  0.53580000  0.19966000  1.0 -0.2132664471
N  N23  1  0.04290000  0.11460000  0.57791000  1.0 -0.2297233231
N  N24  1  0.14060000  0.95130000  0.63595000  1.0 -0.4733295366
O  O1  1  0.40900000  0.80220000  0.49879000  1.0 -0.4036946929
O  O2  1  0.39674000  0.94031000  0.54355000  1.0 -0.219217088
O  O3  1  0.56331000  0.89818000  0.68335000  1.0 -0.2025109137
O  O4  1  0.68310000  0.80840000  0.65309000  1.0 -0.4430782682
O  O5  1  0.59100000  0.19780000  0.49879000  1.0 -0.4036946929
O  O6  1  0.60326000  0.05969000  0.54355000  1.0 -0.219217088
O  O7  1  0.43669000  0.10182000  0.68335000  1.0 -0.2025109137
O  O8  1  0.31690000  0.19160000  0.65309000  1.0 -0.4430782682
O  O9  1  0.69780000  0.90900000  0.99879000  1.0 -0.4036946929
O  O10  1  0.55969000  0.89674000  0.04355000  1.0 -0.219217088
O  O11  1  0.60182000  0.06331000  0.18335000  1.0 -0.2025109137
O  O12  1  0.69160000  0.18310000  0.15309000  1.0 -0.4430782682
O  O13  1  0.30220000  0.09100000  0.99879000  1.0 -0.4036946929
O  O14  1  0.44031000  0.10326000  0.04355000  1.0 -0.219217088
O  O15  1  0.39818000  0.93669000  0.18335000  1.0 -0.2025109137
O  O16  1  0.30840000  0.81690000  0.15309000  1.0 -0.4430782682
O  O17  1  0.09100000  0.69780000  0.00121000  1.0 -0.4036946929
O  O18  1  0.10326000  0.55969000  0.95645000  1.0 -0.219217088
O  O19  1  0.93669000  0.60182000  0.81665000  1.0 -0.2025109137
O  O20  1  0.81690000  0.69160000  0.84691000  1.0 -0.4430782682
O  O21  1  0.90900000  0.30220000  0.00121000  1.0 -0.4036946929
O  O22  1  0.89674000  0.44031000  0.95645000  1.0 -0.219217088
O  O23  1  0.06331000  0.39818000  0.81665000  1.0 -0.2025109137
O  O24  1  0.18310000  0.30840000  0.84691000  1.0 -0.4430782682
O  O25  1  0.80220000  0.59100000  0.50121000  1.0 -0.4036946929
O  O26  1  0.94031000  0.60326000  0.45645000  1.0 -0.219217088
O  O27  1  0.89818000  0.43669000  0.31665000  1.0 -0.2025109137
O  O28  1  0.80840000  0.31690000  0.34691000  1.0 -0.4430782682
O  O29  1  0.19780000  0.40900000  0.50121000  1.0 -0.4036946929
O  O30  1  0.05969000  0.39674000  0.45645000  1.0 -0.219217088
O  O31  1  0.10182000  0.56331000  0.31665000  1.0 -0.2025109137
O  O32  1  0.19160000  0.68310000  0.34691000  1.0 -0.4430782682
