# DDEC6 charges by PACMAN v1.1 (https://github.com/mtap-research/PACMAN-charge/)
data_ZIDCIC_FSR_pacman
_symmetry_space_group_name_H-M   'P 1'
_cell_length_a   9.67231000
_cell_length_b   9.67231000
_cell_length_c   20.19400000
_cell_angle_alpha   90.00000000
_cell_angle_beta   90.00000000
_cell_angle_gamma   96.79050000
_symmetry_Int_Tables_number   1
_chemical_formula_structural   Li3CoBH8(C4O7)2
_chemical_formula_sum   'Li12 Co4 B4 H32 C32 O56'
_cell_volume   1875.96836314
_cell_formula_units_Z   4
loop_
 _symmetry_equiv_pos_site_id
 _symmetry_equiv_pos_as_xyz
  1  'x, y, z'
loop_
 _atom_site_type_symbol
 _atom_site_label
 _atom_site_symmetry_multiplicity
 _atom_site_fract_x
 _atom_site_fract_y
 _atom_site_fract_z
 _atom_site_occupancy
 _atom_site_charge
Li  Li1  1  0.40310000  0.00150000  0.60850000  1.0 0.8094072179
Li  Li2  1  0.18610000  0.19790000  0.57370000  1.0 0.8196990923
Li  Li3  1  0.16500000  0.67500000  0.39800000  1.0 0.8022990063
Li  Li4  1  0.59690000  0.99850000  0.10850000  1.0 0.8094072179
Li  Li5  1  0.81390000  0.80210000  0.07370000  1.0 0.8196990923
Li  Li6  1  0.83500000  0.32500000  0.89800000  1.0 0.8022990063
Li  Li7  1  0.99850000  0.59690000  0.89150000  1.0 0.8094072179
Li  Li8  1  0.80210000  0.81390000  0.92630000  1.0 0.8196990923
Li  Li9  1  0.32500000  0.83500000  0.10200000  1.0 0.8022990063
Li  Li10  1  0.00150000  0.40310000  0.39150000  1.0 0.8094072179
Li  Li11  1  0.19790000  0.18610000  0.42630000  1.0 0.8196990923
Li  Li12  1  0.67500000  0.16500000  0.60200000  1.0 0.8022990063
Co  Co1  1  0.12194000  0.62256000  0.74604000  1.0 0.9741954044
Co  Co2  1  0.87806000  0.37744000  0.24604000  1.0 0.9741954044
Co  Co3  1  0.37744000  0.87806000  0.75396000  1.0 0.9741954044
Co  Co4  1  0.62256000  0.12194000  0.25396000  1.0 0.9741954044
B  B1  1  0.16400000  0.41100000  0.66000000  1.0 0.8462378368
B  B2  1  0.83600000  0.58900000  0.16000000  1.0 0.8462378368
B  B3  1  0.58900000  0.83600000  0.84000000  1.0 0.8462378368
B  B4  1  0.41100000  0.16400000  0.34000000  1.0 0.8462378368
H  H1  1  0.24603000  0.28479000  0.79277000  1.0 0.1198894082
H  H2  1  0.31368000  0.56554000  0.54073000  1.0 0.1198894082
H  H3  1  0.08173000  0.65117000  0.56527000  1.0 0.1198894082
H  H4  1  0.02602000  0.15100000  0.73807000  1.0 0.1114079789
H  H5  1  0.25953000  0.85725000  0.40125000  1.0 0.3727323175
H  H6  1  0.19554000  0.87020000  0.46221000  1.0 0.3613440678
H  H7  1  0.00862000  0.93094000  0.59802000  1.0 0.3824667171
H  H8  1  0.99512000  0.97006000  0.52051000  1.0 0.269381626
H  H9  1  0.75397000  0.71521000  0.29277000  1.0 0.1198894082
H  H10  1  0.68632000  0.43446000  0.04073000  1.0 0.1198894082
H  H11  1  0.91827000  0.34883000  0.06527000  1.0 0.1198894082
H  H12  1  0.97398000  0.84900000  0.23807000  1.0 0.1114079789
H  H13  1  0.74047000  0.14275000  0.90125000  1.0 0.3727323175
H  H14  1  0.80446000  0.12980000  0.96221000  1.0 0.3613440678
H  H15  1  0.99138000  0.06906000  0.09802000  1.0 0.3824667171
H  H16  1  0.00488000  0.02994000  0.02051000  1.0 0.269381626
H  H17  1  0.71521000  0.75397000  0.70723000  1.0 0.1198894082
H  H18  1  0.43446000  0.68632000  0.95927000  1.0 0.1198894082
H  H19  1  0.34883000  0.91827000  0.93473000  1.0 0.1198894082
H  H20  1  0.84900000  0.97398000  0.76193000  1.0 0.1114079789
H  H21  1  0.14275000  0.74047000  0.09875000  1.0 0.3727323175
H  H22  1  0.12980000  0.80446000  0.03779000  1.0 0.3613440678
H  H23  1  0.06906000  0.99138000  0.90198000  1.0 0.3824667171
H  H24  1  0.02994000  0.00488000  0.97949000  1.0 0.269381626
H  H25  1  0.28479000  0.24603000  0.20723000  1.0 0.1198894082
H  H26  1  0.56554000  0.31368000  0.45927000  1.0 0.1198894082
H  H27  1  0.65117000  0.08173000  0.43473000  1.0 0.1198894082
H  H28  1  0.15100000  0.02602000  0.26193000  1.0 0.1114079789
H  H29  1  0.85725000  0.25953000  0.59875000  1.0 0.3727323175
H  H30  1  0.87020000  0.19554000  0.53779000  1.0 0.3613440678
H  H31  1  0.93094000  0.00862000  0.40198000  1.0 0.3824667171
H  H32  1  0.97006000  0.99512000  0.47949000  1.0 0.269381626
C  C1  1  0.17070000  0.31770000  0.76680000  1.0 0.0196966908
C  C2  1  0.24700000  0.73520000  0.62250000  1.0 0.5862976149
C  C3  1  0.22780000  0.51560000  0.55870000  1.0 0.0196966908
C  C4  1  0.15060000  0.61620000  0.59460000  1.0 -0.0088802334
C  C5  1  0.11050000  0.20210000  0.71930000  1.0 0.0196966908
C  C6  1  0.14260000  0.44340000  0.50110000  1.0 0.6190164522
C  C7  1  0.21840000  0.10240000  0.70470000  1.0 0.6125939325
C  C8  1  0.06010000  0.36110000  0.81370000  1.0 0.6029743985
C  C9  1  0.82930000  0.68230000  0.26680000  1.0 0.0196966908
C  C10  1  0.75300000  0.26480000  0.12250000  1.0 0.5862976149
C  C11  1  0.77220000  0.48440000  0.05870000  1.0 0.0252181966
C  C12  1  0.84940000  0.38380000  0.09460000  1.0 -0.0088802334
C  C13  1  0.88950000  0.79790000  0.21930000  1.0 0.0196966908
C  C14  1  0.85740000  0.55660000  0.00110000  1.0 0.6190164522
C  C15  1  0.78160000  0.89760000  0.20470000  1.0 0.6125939325
C  C16  1  0.93990000  0.63890000  0.31370000  1.0 0.6029743985
C  C17  1  0.68230000  0.82930000  0.73320000  1.0 0.0196966908
C  C18  1  0.26480000  0.75300000  0.87750000  1.0 0.5862976149
C  C19  1  0.48440000  0.77220000  0.94130000  1.0 0.0252181966
C  C20  1  0.38380000  0.84940000  0.90540000  1.0 -0.0088802334
C  C21  1  0.79790000  0.88950000  0.78070000  1.0 0.0196966908
C  C22  1  0.55660000  0.85740000  0.99890000  1.0 0.6190164522
C  C23  1  0.89760000  0.78160000  0.79530000  1.0 0.6125939325
C  C24  1  0.63890000  0.93990000  0.68630000  1.0 0.6029743985
C  C25  1  0.31770000  0.17070000  0.23320000  1.0 0.0196966908
C  C26  1  0.73520000  0.24700000  0.37750000  1.0 0.5862976149
C  C27  1  0.51560000  0.22780000  0.44130000  1.0 0.0252181966
C  C28  1  0.61620000  0.15060000  0.40540000  1.0 -0.0088802334
C  C29  1  0.20210000  0.11050000  0.28070000  1.0 0.0196966908
C  C30  1  0.44340000  0.14260000  0.49890000  1.0 0.6190164522
C  C31  1  0.10240000  0.21840000  0.29530000  1.0 0.6125939325
C  C32  1  0.36110000  0.06010000  0.18630000  1.0 0.6029743985
O  O1  1  0.07980000  0.52980000  0.64810000  1.0 -0.4676284804
O  O2  1  0.25780000  0.74400000  0.68690000  1.0 -0.6200819775
O  O3  1  0.07680000  0.27780000  0.66140000  1.0 -0.5183044836
O  O4  1  0.26310000  0.41990000  0.60590000  1.0 -0.4781966633
O  O5  1  0.22620000  0.43040000  0.72630000  1.0 -0.4781966633
O  O6  1  0.12270000  0.31350000  0.50030000  1.0 -0.6605131566
O  O7  1  0.25350000  0.03350000  0.75350000  1.0 -0.571924971
O  O8  1  0.26600000  0.09980000  0.64680000  1.0 -0.7119251653
O  O9  1  0.31130000  0.81670000  0.58340000  1.0 -0.5562063023
O  O10  1  0.09760000  0.52100000  0.45840000  1.0 -0.7119251653
O  O11  1  0.03430000  0.48590000  0.81400000  1.0 -0.641117768
O  O12  1  0.99830000  0.26850000  0.85160000  1.0 -0.6605131566
O  O13  1  0.25260000  0.82680000  0.44070000  1.0 -0.7470155075
O  O14  1  0.01640000  0.03420000  0.56780000  1.0 -0.7605233952
O  O15  1  0.92020000  0.47020000  0.14810000  1.0 -0.4676284804
O  O16  1  0.74220000  0.25600000  0.18690000  1.0 -0.6200819775
O  O17  1  0.92320000  0.72220000  0.16140000  1.0 -0.5183044836
O  O18  1  0.73690000  0.58010000  0.10590000  1.0 -0.4781966633
O  O19  1  0.77380000  0.56960000  0.22630000  1.0 -0.4781966633
O  O20  1  0.87730000  0.68650000  0.00030000  1.0 -0.6605131566
O  O21  1  0.74650000  0.96650000  0.25350000  1.0 -0.571924971
O  O22  1  0.73400000  0.90020000  0.14680000  1.0 -0.7119251653
O  O23  1  0.68870000  0.18330000  0.08340000  1.0 -0.5562063023
O  O24  1  0.90240000  0.47900000  0.95840000  1.0 -0.7119251653
O  O25  1  0.96570000  0.51410000  0.31400000  1.0 -0.641117768
O  O26  1  0.00170000  0.73150000  0.35160000  1.0 -0.6605131566
O  O27  1  0.74740000  0.17320000  0.94070000  1.0 -0.7470155075
O  O28  1  0.98360000  0.96580000  0.06780000  1.0 -0.7605233952
O  O29  1  0.47020000  0.92020000  0.85190000  1.0 -0.4676284804
O  O30  1  0.25600000  0.74220000  0.81310000  1.0 -0.6200819775
O  O31  1  0.72220000  0.92320000  0.83860000  1.0 -0.5183044836
O  O32  1  0.58010000  0.73690000  0.89410000  1.0 -0.4781966633
O  O33  1  0.56960000  0.77380000  0.77370000  1.0 -0.4781966633
O  O34  1  0.68650000  0.87730000  0.99970000  1.0 -0.6605131566
O  O35  1  0.96650000  0.74650000  0.74650000  1.0 -0.571924971
O  O36  1  0.90020000  0.73400000  0.85320000  1.0 -0.7119251653
O  O37  1  0.18330000  0.68870000  0.91660000  1.0 -0.5562063023
O  O38  1  0.47900000  0.90240000  0.04160000  1.0 -0.7119251653
O  O39  1  0.51410000  0.96570000  0.68600000  1.0 -0.641117768
O  O40  1  0.73150000  0.00170000  0.64840000  1.0 -0.6605131566
O  O41  1  0.17320000  0.74740000  0.05930000  1.0 -0.7470155075
O  O42  1  0.96580000  0.98360000  0.93220000  1.0 -0.7605233952
O  O43  1  0.52980000  0.07980000  0.35190000  1.0 -0.4676284804
O  O44  1  0.74400000  0.25780000  0.31310000  1.0 -0.6200819775
O  O45  1  0.27780000  0.07680000  0.33860000  1.0 -0.5183044836
O  O46  1  0.41990000  0.26310000  0.39410000  1.0 -0.4781966633
O  O47  1  0.43040000  0.22620000  0.27370000  1.0 -0.4781966633
O  O48  1  0.31350000  0.12270000  0.49970000  1.0 -0.6605131566
O  O49  1  0.03350000  0.25350000  0.24650000  1.0 -0.571924971
O  O50  1  0.09980000  0.26600000  0.35320000  1.0 -0.7119251653
O  O51  1  0.81670000  0.31130000  0.41660000  1.0 -0.5562063023
O  O52  1  0.52100000  0.09760000  0.54160000  1.0 -0.7119251653
O  O53  1  0.48590000  0.03430000  0.18600000  1.0 -0.641117768
O  O54  1  0.26850000  0.99830000  0.14840000  1.0 -0.6605131566
O  O55  1  0.82680000  0.25260000  0.55930000  1.0 -0.7470155075
O  O56  1  0.03420000  0.01640000  0.43220000  1.0 -0.7605233952
