# DDEC6 charges by PACMAN v1.1 (https://github.com/mtap-research/PACMAN-charge/)
data_ZIJHUZ_ASR_pacman
_symmetry_space_group_name_H-M   'P 1'
_cell_length_a   6.59650000
_cell_length_b   18.18500000
_cell_length_c   12.30810000
_cell_angle_alpha   90.00000000
_cell_angle_beta   118.39900000
_cell_angle_gamma   90.00000000
_symmetry_Int_Tables_number   1
_chemical_formula_structural   CoH10C16(NO)4
_chemical_formula_sum   'Co2 H20 C32 N8 O8'
_cell_volume   1298.76683200
_cell_formula_units_Z   2
loop_
 _symmetry_equiv_pos_site_id
 _symmetry_equiv_pos_as_xyz
  1  'x, y, z'
loop_
 _atom_site_type_symbol
 _atom_site_label
 _atom_site_symmetry_multiplicity
 _atom_site_fract_x
 _atom_site_fract_y
 _atom_site_fract_z
 _atom_site_occupancy
 _atom_site_charge
Co  Co1  1  0.00000000  0.00000000  0.00000000  1.0 0.809566043
Co  Co2  1  0.00000000  0.50000000  0.50000000  1.0 0.809566043
H  H1  1  0.67280000  0.86780000  0.79410000  1.0 0.1291018982
H  H2  1  0.32720000  0.36780000  0.70590000  1.0 0.1291018982
H  H3  1  0.32720000  0.13220000  0.20590000  1.0 0.1291018982
H  H4  1  0.67280000  0.63220000  0.29410000  1.0 0.1291018982
H  H5  1  0.48340000  0.75950000  0.91140000  1.0 0.1376385089
H  H6  1  0.51660000  0.25950000  0.58860000  1.0 0.1376385089
H  H7  1  0.51660000  0.24050000  0.08860000  1.0 0.1376385089
H  H8  1  0.48340000  0.74050000  0.41140000  1.0 0.1376385089
H  H9  1  0.67370000  0.72800000  0.67240000  1.0 0.1291018982
H  H10  1  0.32630000  0.22800000  0.82760000  1.0 0.1291018982
H  H11  1  0.32630000  0.27200000  0.32760000  1.0 0.1291018982
H  H12  1  0.67370000  0.77200000  0.17240000  1.0 0.1291018982
H  H13  1  0.32760000  0.65830000  0.78180000  1.0 0.1206978724
H  H14  1  0.67240000  0.15830000  0.71820000  1.0 0.1206978724
H  H15  1  0.67240000  0.34170000  0.21820000  1.0 0.1206978724
H  H16  1  0.32760000  0.84170000  0.28180000  1.0 0.1206978724
H  H17  1  0.33870000  0.88650000  0.98150000  1.0 0.3003276508
H  H18  1  0.66130000  0.38650000  0.51850000  1.0 0.3003276508
H  H19  1  0.66130000  0.11350000  0.01850000  1.0 0.3003276508
H  H20  1  0.33870000  0.61350000  0.48150000  1.0 0.3003276508
C  C1  1  0.83280000  0.85813000  0.82670000  1.0 -0.0359769356
C  C2  1  0.16720000  0.35813000  0.67330000  1.0 -0.0359769356
C  C3  1  0.16720000  0.14187000  0.17330000  1.0 -0.0359769356
C  C4  1  0.83280000  0.64187000  0.32670000  1.0 -0.0359769356
C  C5  1  0.92580000  0.79571000  0.79730000  1.0 -0.0097650931
C  C6  1  0.07420000  0.29571000  0.70270000  1.0 -0.0097650931
C  C7  1  0.07420000  0.20429000  0.20270000  1.0 -0.0097650931
C  C8  1  0.92580000  0.70429000  0.29730000  1.0 -0.0097650931
C  C9  1  0.16640000  0.80454000  0.86730000  1.0 0.1526907344
C  C10  1  0.83360000  0.30454000  0.63270000  1.0 0.1526907344
C  C11  1  0.83360000  0.19546000  0.13270000  1.0 0.1526907344
C  C12  1  0.16640000  0.69546000  0.36730000  1.0 0.1526907344
C  C13  1  0.32140000  0.75341000  0.86350000  1.0 -0.1777167287
C  C14  1  0.67860000  0.25341000  0.63650000  1.0 -0.1777167287
C  C15  1  0.67860000  0.24659000  0.13650000  1.0 -0.1777167287
C  C16  1  0.32140000  0.74659000  0.36350000  1.0 -0.1777167287
C  C17  1  0.83560000  0.73444000  0.72030000  1.0 -0.1475611892
C  C18  1  0.16440000  0.23444000  0.77970000  1.0 -0.1475611892
C  C19  1  0.16440000  0.26556000  0.27970000  1.0 -0.1475611892
C  C20  1  0.83560000  0.76556000  0.22030000  1.0 -0.1475611892
C  C21  1  0.22730000  0.69394000  0.78700000  1.0 -0.091305964
C  C22  1  0.77270000  0.19394000  0.71300000  1.0 -0.091305964
C  C23  1  0.77270000  0.30606000  0.21300000  1.0 -0.091305964
C  C24  1  0.22730000  0.80606000  0.28700000  1.0 -0.091305964
C  C25  1  0.98530000  0.68376000  0.71520000  1.0 -0.0213955034
C  C26  1  0.01470000  0.18376000  0.78480000  1.0 -0.0213955034
C  C27  1  0.01470000  0.31624000  0.28480000  1.0 -0.0213955034
C  C28  1  0.98530000  0.81624000  0.21520000  1.0 -0.0213955034
C  C29  1  0.89120000  0.61808000  0.63190000  1.0 0.5689329128
C  C30  1  0.10880000  0.11808000  0.86810000  1.0 0.5689329128
C  C31  1  0.10880000  0.38192000  0.36810000  1.0 0.5689329128
C  C32  1  0.89120000  0.88192000  0.13190000  1.0 0.5689329128
N  N1  1  0.20200000  0.86852000  0.93080000  1.0 -0.1366754252
N  N2  1  0.79800000  0.36852000  0.56920000  1.0 -0.1366754252
N  N3  1  0.79800000  0.13148000  0.06920000  1.0 -0.1366754252
N  N4  1  0.20200000  0.63148000  0.43080000  1.0 -0.1349988658
N  N5  1  0.99920000  0.90113000  0.90580000  1.0 -0.1777167287
N  N6  1  0.00080000  0.40113000  0.59420000  1.0 -0.1777167287
N  N7  1  0.00080000  0.09887000  0.09420000  1.0 -0.1777167287
N  N8  1  0.99920000  0.59887000  0.40580000  1.0 -0.1777167287
O  O1  1  0.03120000  0.56703000  0.64440000  1.0 -0.5636090864
O  O2  1  0.96880000  0.06703000  0.85560000  1.0 -0.5636090864
O  O3  1  0.96880000  0.43297000  0.35560000  1.0 -0.5636090864
O  O4  1  0.03120000  0.93297000  0.14440000  1.0 -0.5636090864
O  O5  1  0.68140000  0.61850000  0.55420000  1.0 -0.5819709826
O  O6  1  0.31860000  0.11850000  0.94580000  1.0 -0.5819709826
O  O7  1  0.31860000  0.38150000  0.44580000  1.0 -0.5819709826
O  O8  1  0.68140000  0.88150000  0.05420000  1.0 -0.5819709826
