# DDEC6 charges by PACMAN v1.1 (https://github.com/mtap-research/PACMAN-charge/)
data_ZILCUV_ASR_pacman
_symmetry_space_group_name_H-M   'P 1'
_cell_length_a   7.90580000
_cell_length_b   9.20280000
_cell_length_c   21.31600000
_cell_angle_alpha   97.86000000
_cell_angle_beta   95.75000000
_cell_angle_gamma   105.84000000
_symmetry_Int_Tables_number   1
_chemical_formula_structural   ZnH41C37(N2O3)3
_chemical_formula_sum   'Zn2 H82 C74 N12 O18'
_cell_volume   1462.48183591
_cell_formula_units_Z   2
loop_
 _symmetry_equiv_pos_site_id
 _symmetry_equiv_pos_as_xyz
  1  'x, y, z'
loop_
 _atom_site_type_symbol
 _atom_site_label
 _atom_site_symmetry_multiplicity
 _atom_site_fract_x
 _atom_site_fract_y
 _atom_site_fract_z
 _atom_site_occupancy
 _atom_site_charge
Zn  Zn1  1  0.63825000  0.80974000  0.68819000  1.0 0.7429032595
Zn  Zn2  1  0.36175000  0.19026000  0.31181000  1.0 0.7429032595
H  H1  1  0.15150000  0.62950000  0.65230000  1.0 0.1104506428
H  H2  1  0.16330000  0.21270000  0.68730000  1.0 0.1209400639
H  H3  1  0.30260000  0.44630000  0.65860000  1.0 0.1209400639
H  H4  1  0.51190000  0.32820000  0.77250000  1.0 0.1104506428
H  H5  1  0.70560000  0.44800000  0.79210000  1.0 0.1104506428
H  H6  1  0.68030000  0.26860000  0.78950000  1.0 0.1007039517
H  H7  1  0.64030000  0.77260000  0.55500000  1.0 0.2506484956
H  H8  1  0.60410000  0.74590000  0.44700000  1.0 0.0895683786
H  H9  1  0.41710000  0.76620000  0.42000000  1.0 0.0792546513
H  H10  1  0.44770000  0.60020000  0.40990000  1.0 0.1007039517
H  H11  1  0.72280000  0.03790000  0.84560000  1.0 0.1460428209
H  H12  1  0.50440000  0.08170000  0.90400000  1.0 0.1104506428
H  H13  1  0.61450000  0.81030000  0.02250000  1.0 0.0683689311
H  H14  1  0.81660000  0.75540000  0.95660000  1.0 0.0792546513
H  H15  1  0.94490000  0.93980000  0.82810000  1.0 0.2779728145
H  H16  1  0.39910000  0.00620000  0.72430000  1.0 0.1104506428
H  H17  1  0.17240000  0.00270000  0.78720000  1.0 0.1104506428
H  H18  1  0.24500000  0.62500000  0.85020000  1.0 0.1209400639
H  H19  1  0.47170000  0.62850000  0.78730000  1.0 0.1104506428
H  H20  1  0.19710000  0.48700000  0.47220000  1.0 0.0895683786
H  H21  1  0.15130000  0.64640000  0.47410000  1.0 0.0895683786
H  H22  1  0.19260000  0.58650000  0.53940000  1.0 0.0895683786
H  H23  1  0.40960000  0.87250000  0.58390000  1.0 0.0895683786
H  H24  1  0.09860000  0.73350000  0.45470000  1.0 0.0683689311
H  H25  1  0.29100000  0.80990000  0.43680000  1.0 0.1104506428
H  H26  1  0.22430000  0.89010000  0.49700000  1.0 0.1104506428
H  H27  1  0.91570000  0.85180000  0.98780000  1.0 0.0792546513
H  H28  1  0.70200000  0.90370000  0.04860000  1.0 0.0616981082
H  H29  1  0.73720000  0.06890000  0.85100000  1.0 0.1460428209
H  H30  1  0.54130000  0.13120000  0.91890000  1.0 0.1104506428
H  H31  1  0.35380000  0.53490000  0.45810000  1.0 0.0895683786
H  H32  1  0.14930000  0.49800000  0.46790000  1.0 0.1007039517
H  H33  1  0.29500000  0.49130000  0.52440000  1.0 0.0792546513
H  H34  1  0.97900000  0.97320000  0.83960000  1.0 0.2779728145
H  H35  1  0.93420000  0.82800000  0.49510000  1.0 0.1007039517
H  H36  1  0.05430000  0.15420000  0.49150000  1.0 0.1209400639
H  H37  1  0.93980000  0.17130000  0.42810000  1.0 0.1007039517
H  H38  1  0.04810000  0.04740000  0.42490000  1.0 0.1668216631
H  H39  1  0.60560000  0.84870000  0.40830000  1.0 0.0895683786
H  H40  1  0.70400000  0.99440000  0.37870000  1.0 0.1104506428
H  H41  1  0.58990000  0.01470000  0.43550000  1.0 0.0895683786
H  H42  1  0.84850000  0.37050000  0.34770000  1.0 0.1104506428
H  H43  1  0.83670000  0.78730000  0.31270000  1.0 0.1209400639
H  H44  1  0.69740000  0.55370000  0.34140000  1.0 0.1209400639
H  H45  1  0.48810000  0.67180000  0.22750000  1.0 0.1104506428
H  H46  1  0.29440000  0.55200000  0.20790000  1.0 0.1104506428
H  H47  1  0.31970000  0.73140000  0.21050000  1.0 0.1007039517
H  H48  1  0.35970000  0.22740000  0.44500000  1.0 0.2506484956
H  H49  1  0.39590000  0.25410000  0.55300000  1.0 0.0895683786
H  H50  1  0.58290000  0.23380000  0.58000000  1.0 0.0792546513
H  H51  1  0.55230000  0.39980000  0.59010000  1.0 0.1007039517
H  H52  1  0.27720000  0.96210000  0.15440000  1.0 0.1460428209
H  H53  1  0.49560000  0.91830000  0.09600000  1.0 0.1104506428
H  H54  1  0.38550000  0.18970000  0.97750000  1.0 0.0683689311
H  H55  1  0.18340000  0.24460000  0.04340000  1.0 0.0792546513
H  H56  1  0.05510000  0.06020000  0.17190000  1.0 0.2779728145
H  H57  1  0.60090000  0.99380000  0.27570000  1.0 0.1104506428
H  H58  1  0.82760000  0.99730000  0.21280000  1.0 0.1104506428
H  H59  1  0.75500000  0.37500000  0.14980000  1.0 0.1209400639
H  H60  1  0.52830000  0.37150000  0.21270000  1.0 0.1104506428
H  H61  1  0.80290000  0.51300000  0.52780000  1.0 0.0895683786
H  H62  1  0.84870000  0.35360000  0.52590000  1.0 0.0895683786
H  H63  1  0.80740000  0.41350000  0.46060000  1.0 0.0895683786
H  H64  1  0.59040000  0.12750000  0.41610000  1.0 0.0895683786
H  H65  1  0.90140000  0.26650000  0.54530000  1.0 0.0683689311
H  H66  1  0.70900000  0.19010000  0.56320000  1.0 0.1104506428
H  H67  1  0.77570000  0.10990000  0.50300000  1.0 0.1104506428
H  H68  1  0.08430000  0.14820000  0.01220000  1.0 0.0792546513
H  H69  1  0.29800000  0.09630000  0.95140000  1.0 0.0616981082
H  H70  1  0.26280000  0.93110000  0.14900000  1.0 0.1460428209
H  H71  1  0.45870000  0.86880000  0.08110000  1.0 0.1104506428
H  H72  1  0.64620000  0.46510000  0.54190000  1.0 0.0895683786
H  H73  1  0.85070000  0.50200000  0.53210000  1.0 0.1007039517
H  H74  1  0.70500000  0.50870000  0.47560000  1.0 0.0792546513
H  H75  1  0.02100000  0.02680000  0.16040000  1.0 0.2779728145
H  H76  1  0.06580000  0.17200000  0.50490000  1.0 0.1007039517
H  H77  1  0.94570000  0.84580000  0.50850000  1.0 0.1209400639
H  H78  1  0.06020000  0.82870000  0.57190000  1.0 0.1007039517
H  H79  1  0.95190000  0.95260000  0.57510000  1.0 0.1668216631
H  H80  1  0.39440000  0.15130000  0.59170000  1.0 0.0895683786
H  H81  1  0.29600000  0.00560000  0.62130000  1.0 0.1104506428
H  H82  1  0.41010000  0.98530000  0.56450000  1.0 0.0895683786
C  C1  1  0.92200000  0.50770000  0.67930000  1.0 -0.1197336495
C  C2  1  0.83820000  0.36620000  0.69450000  1.0 0.2231420547
C  C3  1  0.83420000  0.63340000  0.67750000  1.0 0.5083361239
C  C4  1  0.92690000  0.25310000  0.69500000  1.0 -0.1007183087
C  C5  1  0.83460000  0.09440000  0.70580000  1.0 0.5398511857
C  C6  1  0.09460000  0.53480000  0.66460000  1.0 -0.1914816994
C  C7  1  0.10030000  0.28630000  0.68380000  1.0 -0.1007183087
C  C8  1  0.18400000  0.42560000  0.66760000  1.0 -0.1799554755
C  C9  1  0.63860000  0.34500000  0.76970000  1.0 -0.2228971402
C  C10  1  0.51870000  0.72120000  0.55540000  1.0 -0.0425746452
C  C11  1  0.47500000  0.69800000  0.43920000  1.0 -0.4654760688
C  C12  1  0.02100000  0.78300000  0.86130000  1.0 0.2591235385
C  C13  1  0.70800000  0.99600000  0.88370000  1.0 -0.1914816994
C  C14  1  0.58100000  0.02700000  0.91980000  1.0 -0.0937384695
C  C15  1  0.80400000  0.91470000  0.90000000  1.0 0.1415509813
C  C16  1  0.56370000  0.98000000  0.97820000  1.0 0.0319803793
C  C17  1  0.64260000  0.86600000  0.98860000  1.0 0.0012616768
C  C18  1  0.76270000  0.83330000  0.94950000  1.0 -0.0567470546
C  C19  1  0.36780000  0.92880000  0.74980000  1.0 -0.000481928
C  C20  1  0.23310000  0.92670000  0.78720000  1.0 -0.2929300546
C  C21  1  0.18740000  0.81350000  0.82460000  1.0 -0.0083753462
C  C22  1  0.27630000  0.70240000  0.82470000  1.0 -0.2228971402
C  C23  1  0.41090000  0.70450000  0.78730000  1.0 0.0532450833
C  C24  1  0.22200000  0.59100000  0.49610000  1.0 -0.0683036141
C  C25  1  0.39530000  0.76660000  0.57020000  1.0 0.0616981082
C  C26  1  0.22200000  0.79200000  0.47200000  1.0 -0.4103515178
C  C27  1  0.83050000  0.89640000  0.97050000  1.0 -0.0567470546
C  C28  1  0.83300000  0.93100000  0.90900000  1.0 0.0895683786
C  C29  1  0.57870000  0.99260000  0.98130000  1.0 0.0350673244
C  C30  1  0.70350000  0.92730000  0.00660000  1.0 -0.0083753462
C  C31  1  0.07800000  0.83100000  0.87850000  1.0 0.2591235385
C  C32  1  0.72500000  0.02900000  0.88960000  1.0 -0.1914816994
C  C33  1  0.60500000  0.06130000  0.92870000  1.0 -0.1007183087
C  C34  1  0.27200000  0.54400000  0.48900000  1.0 -0.1330959528
C  C35  1  0.84700000  0.88000000  0.50170000  1.0 0.1415509813
C  C36  1  0.98000000  0.09880000  0.45120000  1.0 -0.2378472939
C  C37  1  0.66800000  0.95900000  0.41800000  1.0 -0.3423955023
C  C38  1  0.07800000  0.49230000  0.32070000  1.0 -0.1197336495
C  C39  1  0.16180000  0.63380000  0.30550000  1.0 0.2231420547
C  C40  1  0.16580000  0.36660000  0.32250000  1.0 0.5083361239
C  C41  1  0.07310000  0.74690000  0.30500000  1.0 -0.1007183087
C  C42  1  0.16540000  0.90560000  0.29420000  1.0 0.5398511857
C  C43  1  0.90540000  0.46520000  0.33540000  1.0 -0.1914816994
C  C44  1  0.89970000  0.71370000  0.31620000  1.0 -0.1007183087
C  C45  1  0.81600000  0.57440000  0.33240000  1.0 -0.1799554755
C  C46  1  0.36140000  0.65500000  0.23030000  1.0 -0.2256794303
C  C47  1  0.48130000  0.27880000  0.44460000  1.0 -0.0425746452
C  C48  1  0.52500000  0.30200000  0.56080000  1.0 -0.4654760688
C  C49  1  0.97900000  0.21700000  0.13870000  1.0 0.2591235385
C  C50  1  0.29200000  0.00400000  0.11630000  1.0 -0.1914816994
C  C51  1  0.41900000  0.97300000  0.08020000  1.0 -0.0937384695
C  C52  1  0.19600000  0.08530000  0.10000000  1.0 0.1415509813
C  C53  1  0.43630000  0.02000000  0.02180000  1.0 0.0319803793
C  C54  1  0.35740000  0.13400000  0.01140000  1.0 0.0012616768
C  C55  1  0.23730000  0.16670000  0.05050000  1.0 -0.0567470546
C  C56  1  0.63220000  0.07120000  0.25020000  1.0 0.0012616768
C  C57  1  0.76690000  0.07330000  0.21280000  1.0 -0.2929300546
C  C58  1  0.81260000  0.18650000  0.17540000  1.0 -0.0083753462
C  C59  1  0.72370000  0.29760000  0.17530000  1.0 -0.2228971402
C  C60  1  0.58910000  0.29550000  0.21270000  1.0 0.0616981082
C  C61  1  0.77800000  0.40900000  0.50390000  1.0 -0.0683036141
C  C62  1  0.60470000  0.23340000  0.42980000  1.0 0.0616981082
C  C63  1  0.77800000  0.20800000  0.52800000  1.0 -0.4103515178
C  C64  1  0.16950000  0.10360000  0.02950000  1.0 -0.0549883872
C  C65  1  0.16700000  0.06900000  0.09100000  1.0 0.0895683786
C  C66  1  0.42130000  0.00740000  0.01870000  1.0 0.0350673244
C  C67  1  0.29650000  0.07270000  0.99340000  1.0 -0.016437133
C  C68  1  0.92200000  0.16900000  0.12150000  1.0 0.2591235385
C  C69  1  0.27500000  0.97100000  0.11040000  1.0 -0.1914816994
C  C70  1  0.39500000  0.93870000  0.07130000  1.0 -0.1007183087
C  C71  1  0.72800000  0.45600000  0.51100000  1.0 -0.1330959528
C  C72  1  0.15300000  0.12000000  0.49830000  1.0 0.1415509813
C  C73  1  0.02000000  0.90120000  0.54880000  1.0 -0.2378472939
C  C74  1  0.33200000  0.04100000  0.58200000  1.0 -0.3423955023
N  N1  1  0.41090000  0.67150000  0.49960000  1.0 0.1919250161
N  N2  1  0.92790000  0.88470000  0.85880000  1.0 -0.1799554755
N  N3  1  0.45670000  0.81770000  0.74988000  1.0 -0.3646214634
N  N4  1  0.29900000  0.70390000  0.51350000  1.0 0.1763459116
N  N5  1  0.96700000  0.91930000  0.87080000  1.0 -0.1914816994
N  N6  1  0.82590000  0.98530000  0.46480000  1.0 -0.1799554755
N  N7  1  0.58910000  0.32850000  0.50040000  1.0 0.1919250161
N  N8  1  0.07210000  0.11530000  0.14120000  1.0 -0.1799554755
N  N9  1  0.54330000  0.18230000  0.25012000  1.0 -0.3646214634
N  N10  1  0.70100000  0.29610000  0.48650000  1.0 0.1763459116
N  N11  1  0.03300000  0.08070000  0.12920000  1.0 -0.1914816994
N  N12  1  0.17410000  0.01470000  0.53520000  1.0 -0.1799554755
O  O1  1  0.70140000  0.01680000  0.66500000  1.0 -0.5396336347
O  O2  1  0.86740000  0.71950000  0.63740000  1.0 -0.5529530972
O  O3  1  0.73120000  0.64830000  0.71800000  1.0 -0.5025886327
O  O4  1  0.46770000  0.70350000  0.60660000  1.0 -0.2517599493
O  O5  1  0.66450000  0.33060000  0.70440000  1.0 -0.2126158952
O  O6  1  0.89470000  0.04300000  0.75120000  1.0 -0.5529530972
O  O7  1  0.99810000  0.68330000  0.89470000  1.0 -0.1969076275
O  O8  1  0.08210000  0.75810000  0.92240000  1.0 -0.2378472939
O  O9  1  0.75300000  0.85300000  0.54330000  1.0 -0.35417265
O  O10  1  0.29860000  0.98320000  0.33500000  1.0 -0.5396336347
O  O11  1  0.13260000  0.28050000  0.36260000  1.0 -0.5529530972
O  O12  1  0.26880000  0.35170000  0.28200000  1.0 -0.5025886327
O  O13  1  0.53230000  0.29650000  0.39340000  1.0 -0.2517599493
O  O14  1  0.33550000  0.66940000  0.29560000  1.0 -0.2126158952
O  O15  1  0.10530000  0.95700000  0.24880000  1.0 -0.5529530972
O  O16  1  0.00190000  0.31670000  0.10530000  1.0 -0.1969076275
O  O17  1  0.91790000  0.24190000  0.07760000  1.0 -0.2378472939
O  O18  1  0.24700000  0.14700000  0.45670000  1.0 -0.35417265
