# DDEC6 charges by PACMAN v1.1 (https://github.com/mtap-research/PACMAN-charge/)
data_ZILDAC_ASR_pacman
_symmetry_space_group_name_H-M   'P 1'
_cell_length_a   9.68950000
_cell_length_b   10.05100000
_cell_length_c   19.88700000
_cell_angle_alpha   79.05000000
_cell_angle_beta   76.39000000
_cell_angle_gamma   77.39000000
_symmetry_Int_Tables_number   1
_chemical_formula_structural   ZnH27C36N5O6
_chemical_formula_sum   'Zn2 H54 C72 N10 O12'
_cell_volume   1817.27410370
_cell_formula_units_Z   2
loop_
 _symmetry_equiv_pos_site_id
 _symmetry_equiv_pos_as_xyz
  1  'x, y, z'
loop_
 _atom_site_type_symbol
 _atom_site_label
 _atom_site_symmetry_multiplicity
 _atom_site_fract_x
 _atom_site_fract_y
 _atom_site_fract_z
 _atom_site_occupancy
 _atom_site_charge
Zn  Zn1  1  0.08149000  0.11440000  0.05004000  1.0 0.7774104676
Zn  Zn2  1  0.91851000  0.88560000  0.94996000  1.0 0.7774104676
H  H1  1  0.57680000  0.93180000  0.34810000  1.0 0.2924103117
H  H2  1  0.71300000  0.96050000  0.80490000  1.0 0.2967556468
H  H3  1  0.08740000  0.57110000  0.04800000  1.0 0.1290017924
H  H4  1  0.26020000  0.73960000  0.17130000  1.0 0.118190698
H  H5  1  0.28200000  0.32600000  0.19870000  1.0 0.1290017924
H  H6  1  0.43170000  0.18660000  0.44520000  1.0 0.1290017924
H  H7  1  0.24660000  0.18610000  0.54490000  1.0 0.1129738948
H  H8  1  0.16120000  0.83300000  0.50710000  1.0 0.118190698
H  H9  1  0.34630000  0.83360000  0.40740000  1.0 0.138621231
H  H10  1  0.78670000  0.93350000  0.28960000  1.0 0.118190698
H  H11  1  0.98490000  0.92950000  0.19580000  1.0 0.1129738948
H  H12  1  0.78130000  0.28060000  0.09610000  1.0 0.118190698
H  H13  1  0.58310000  0.28470000  0.18990000  1.0 0.1290017924
H  H14  1  0.05390000  0.80930000  0.61680000  1.0 0.118190698
H  H15  1  0.02900000  0.22210000  0.59780000  1.0 0.1129738948
H  H16  1  0.83370000  0.23250000  0.69300000  1.0 0.1290017924
H  H17  1  0.85860000  0.81970000  0.71190000  1.0 0.138621231
H  H18  1  0.39900000  0.44070000  0.27130000  1.0 0.3153825006
H  H19  1  0.38420000  0.59100000  0.24890000  1.0 0.2967556468
H  H20  1  0.39090000  0.96140000  0.99910000  1.0 0.0703746951
H  H21  1  0.15210000  0.27220000  0.90290000  1.0 0.0803658193
H  H22  1  0.33230000  0.27780000  0.80320000  1.0 0.0968452128
H  H23  1  0.58040000  0.96000000  0.90230000  1.0 0.0968452128
H  H24  1  0.34700000  0.91920000  0.97860000  1.0 0.0803658193
H  H25  1  0.20610000  0.31390000  0.92560000  1.0 0.0860930434
H  H26  1  0.38510000  0.32180000  0.82450000  1.0 0.0968452128
H  H27  1  0.53300000  0.91630000  0.87990000  1.0 0.0968452128
H  H28  1  0.42320000  0.06820000  0.65190000  1.0 0.2924103117
H  H29  1  0.28700000  0.03950000  0.19510000  1.0 0.2967556468
H  H30  1  0.91260000  0.42890000  0.95200000  1.0 0.1290017924
H  H31  1  0.73980000  0.26040000  0.82870000  1.0 0.118190698
H  H32  1  0.71800000  0.67400000  0.80130000  1.0 0.1290017924
H  H33  1  0.56830000  0.81340000  0.55480000  1.0 0.1290017924
H  H34  1  0.75340000  0.81390000  0.45510000  1.0 0.1129738948
H  H35  1  0.83880000  0.16700000  0.49290000  1.0 0.118190698
H  H36  1  0.65370000  0.16640000  0.59260000  1.0 0.138621231
H  H37  1  0.21330000  0.06650000  0.71040000  1.0 0.118190698
H  H38  1  0.01510000  0.07050000  0.80420000  1.0 0.1129738948
H  H39  1  0.21870000  0.71940000  0.90390000  1.0 0.118190698
H  H40  1  0.41690000  0.71530000  0.81010000  1.0 0.1290017924
H  H41  1  0.94610000  0.19070000  0.38320000  1.0 0.118190698
H  H42  1  0.97100000  0.77790000  0.40220000  1.0 0.118190698
H  H43  1  0.16630000  0.76750000  0.30700000  1.0 0.1290017924
H  H44  1  0.14140000  0.18030000  0.28810000  1.0 0.138621231
H  H45  1  0.60100000  0.55930000  0.72870000  1.0 0.3153825006
H  H46  1  0.61580000  0.40900000  0.75110000  1.0 0.2967556468
H  H47  1  0.60910000  0.03860000  0.00090000  1.0 0.0703746951
H  H48  1  0.84790000  0.72780000  0.09710000  1.0 0.0803658193
H  H49  1  0.66770000  0.72220000  0.19680000  1.0 0.0968452128
H  H50  1  0.41960000  0.04000000  0.09770000  1.0 0.0968452128
H  H51  1  0.65300000  0.08080000  0.02140000  1.0 0.0803658193
H  H52  1  0.79390000  0.68610000  0.07440000  1.0 0.0860930434
H  H53  1  0.61490000  0.67820000  0.17550000  1.0 0.0968452128
H  H54  1  0.46700000  0.08370000  0.12010000  1.0 0.0968452128
C  C1  1  0.13710000  0.56072000  0.08511000  1.0 -0.1523906836
C  C2  1  0.16700000  0.67596000  0.10409000  1.0 -0.0115709426
C  C3  1  0.23975000  0.66080000  0.15832000  1.0 -0.2543546954
C  C4  1  0.28260000  0.53041000  0.19358000  1.0 0.2924103117
C  C5  1  0.25270000  0.41517000  0.17460000  1.0 -0.2177871713
C  C6  1  0.17995000  0.43032000  0.12036000  1.0 -0.0115709426
C  C7  1  0.12610000  0.81760000  0.06524000  1.0 0.5493112406
C  C8  1  0.15250000  0.30480000  0.09891000  1.0 0.5414381227
C  C9  1  0.40641000  0.01017000  0.41690000  1.0 0.2360932431
C  C10  1  0.37679000  0.11486000  0.45773000  1.0 -0.1774163692
C  C11  1  0.26683000  0.11453000  0.51696000  1.0 -0.1402146467
C  C12  1  0.18648000  0.00950000  0.53536000  1.0 0.0595313907
C  C13  1  0.21610000  0.90481000  0.49453000  1.0 -0.1233445057
C  C14  1  0.32606000  0.90515000  0.43530000  1.0 -0.1774163692
C  C15  1  0.53690000  0.12320000  0.30871000  1.0 0.4685543975
C  C16  1  0.78563000  0.00399000  0.25036000  1.0 -0.1890236461
C  C17  1  0.90331000  0.00158000  0.19463000  1.0 0.0595313907
C  C18  1  0.78237000  0.21017000  0.13539000  1.0 0.0538907977
C  C19  1  0.66469000  0.21259000  0.19111000  1.0 -0.1723302577
C  C20  1  0.66632000  0.10950000  0.24860000  1.0 0.0090582133
C  C21  1  0.59010000  0.12920000  0.77468000  1.0 0.3802273473
C  C22  1  0.00920000  0.89522000  0.63224000  1.0 -0.1299361983
C  C23  1  0.05981000  0.01476000  0.59835000  1.0 0.0595313907
C  C24  1  0.99440000  0.14044000  0.62098000  1.0 -0.1523906836
C  C25  1  0.87840000  0.14657000  0.67751000  1.0 -0.1774163692
C  C26  1  0.82780000  0.02703000  0.71140000  1.0 0.2360932431
C  C27  1  0.89320000  0.90136000  0.68877000  1.0 -0.1723302577
C  C28  1  0.47780000  0.11860000  0.84116000  1.0 -0.0031922799
C  C29  1  0.37950000  0.02730000  0.95880000  1.0 -0.0115709426
C  C30  1  0.24020000  0.20820000  0.90260000  1.0 0.0007043491
C  C31  1  0.34730000  0.21180000  0.84310000  1.0 -0.069570237
C  C32  1  0.49340000  0.02500000  0.90080000  1.0 -0.0753817284
C  C33  1  0.35450000  0.00190000  0.94670000  1.0 -0.0031922799
C  C34  1  0.27200000  0.23160000  0.91580000  1.0 0.0090582133
C  C35  1  0.37930000  0.23770000  0.85540000  1.0 -0.069570237
C  C36  1  0.46620000  0.99910000  0.88770000  1.0 -0.069570237
C  C37  1  0.86290000  0.43928000  0.91489000  1.0 -0.1523906836
C  C38  1  0.83300000  0.32404000  0.89591000  1.0 -0.0115709426
C  C39  1  0.76025000  0.33920000  0.84168000  1.0 -0.2554126182
C  C40  1  0.71740000  0.46959000  0.80642000  1.0 0.2924103117
C  C41  1  0.74730000  0.58483000  0.82540000  1.0 -0.2177871713
C  C42  1  0.82005000  0.56968000  0.87964000  1.0 -0.0115709426
C  C43  1  0.87390000  0.18240000  0.93476000  1.0 0.5493112406
C  C44  1  0.84750000  0.69520000  0.90109000  1.0 0.5414381227
C  C45  1  0.59359000  0.98983000  0.58310000  1.0 0.2360932431
C  C46  1  0.62321000  0.88514000  0.54227000  1.0 -0.1774163692
C  C47  1  0.73317000  0.88547000  0.48304000  1.0 -0.1402146467
C  C48  1  0.81352000  0.99050000  0.46464000  1.0 0.0595313907
C  C49  1  0.78390000  0.09519000  0.50547000  1.0 -0.1233445057
C  C50  1  0.67394000  0.09485000  0.56470000  1.0 -0.1774163692
C  C51  1  0.46310000  0.87680000  0.69129000  1.0 0.4685543975
C  C52  1  0.21437000  0.99601000  0.74964000  1.0 -0.1890236461
C  C53  1  0.09669000  0.99842000  0.80537000  1.0 0.0595313907
C  C54  1  0.21763000  0.78983000  0.86461000  1.0 0.0538907977
C  C55  1  0.33531000  0.78741000  0.80889000  1.0 -0.1723302577
C  C56  1  0.33368000  0.89050000  0.75140000  1.0 0.0090582133
C  C57  1  0.40990000  0.87080000  0.22532000  1.0 0.3802273473
C  C58  1  0.99080000  0.10478000  0.36776000  1.0 -0.1299361983
C  C59  1  0.94019000  0.98524000  0.40165000  1.0 0.0595313907
C  C60  1  0.00560000  0.85956000  0.37902000  1.0 -0.1523906836
C  C61  1  0.12160000  0.85343000  0.32249000  1.0 -0.1774163692
C  C62  1  0.17220000  0.97297000  0.28860000  1.0 0.2360932431
C  C63  1  0.10680000  0.09864000  0.31123000  1.0 -0.1723302577
C  C64  1  0.52220000  0.88140000  0.15884000  1.0 -0.0031922799
C  C65  1  0.62050000  0.97270000  0.04120000  1.0 -0.0115709426
C  C66  1  0.75980000  0.79180000  0.09740000  1.0 0.0007043491
C  C67  1  0.65270000  0.78820000  0.15690000  1.0 -0.069570237
C  C68  1  0.50660000  0.97500000  0.09920000  1.0 -0.0753817284
C  C69  1  0.64550000  0.99810000  0.05330000  1.0 -0.0031922799
C  C70  1  0.72800000  0.76840000  0.08420000  1.0 0.0090582133
C  C71  1  0.62070000  0.76230000  0.14460000  1.0 -0.069570237
C  C72  1  0.53380000  0.00090000  0.11230000  1.0 -0.069570237
N  N1  1  0.51780000  0.00990000  0.35561000  1.0 -0.3938489655
N  N2  1  0.70870000  0.02870000  0.77003000  1.0 -0.4392801025
N  N3  1  0.90168000  0.10467000  0.13715000  1.0 -0.2747958401
N  N4  1  0.35140000  0.51530000  0.24970000  1.0 -0.5944732824
N  N5  1  0.25700000  0.11620000  0.96056000  1.0 -0.1723302577
N  N6  1  0.48220000  0.99010000  0.64439000  1.0 -0.3957497278
N  N7  1  0.29130000  0.97130000  0.22997000  1.0 -0.4392801025
N  N8  1  0.09832000  0.89533000  0.86285000  1.0 -0.2756911913
N  N9  1  0.64860000  0.48470000  0.75030000  1.0 -0.5944732824
N  N10  1  0.74300000  0.88380000  0.03944000  1.0 -0.1723302577
O  O1  1  0.16071000  0.91617000  0.08486000  1.0 -0.5262765685
O  O2  1  0.06220000  0.83059000  0.01612000  1.0 -0.5262765685
O  O3  1  0.20840000  0.18628000  0.12466000  1.0 -0.5521660545
O  O4  1  0.07400000  0.32107000  0.05447000  1.0 -0.5201542377
O  O5  1  0.57110000  0.22792000  0.72855000  1.0 -0.4726263085
O  O6  1  0.45650000  0.23590000  0.31287000  1.0 -0.460827733
O  O7  1  0.83929000  0.08383000  0.91514000  1.0 -0.5262765685
O  O8  1  0.93780000  0.16941000  0.98388000  1.0 -0.5201542377
O  O9  1  0.79160000  0.81372000  0.87534000  1.0 -0.5521660545
O  O10  1  0.92600000  0.67893000  0.94553000  1.0 -0.5201542377
O  O11  1  0.42890000  0.77208000  0.27145000  1.0 -0.4726263085
O  O12  1  0.54350000  0.76410000  0.68713000  1.0 -0.460827733
