# DDEC6 charges by PACMAN v1.1 (https://github.com/mtap-research/PACMAN-charge/)
data_ZILMOA_ASR_pacman
_symmetry_space_group_name_H-M   'P 1'
_cell_length_a   17.99360000
_cell_length_b   17.99360000
_cell_length_c   13.03130000
_cell_angle_alpha   90.00000000
_cell_angle_beta   90.00000000
_cell_angle_gamma   120.00000000
_symmetry_Int_Tables_number   1
_chemical_formula_structural   SrCu6H30C27S3(NO4)6
_chemical_formula_sum   'Sr2 Cu12 H60 C54 S6 N12 O48'
_cell_volume   3653.88183517
_cell_formula_units_Z   2
loop_
 _symmetry_equiv_pos_site_id
 _symmetry_equiv_pos_as_xyz
  1  'x, y, z'
loop_
 _atom_site_type_symbol
 _atom_site_label
 _atom_site_symmetry_multiplicity
 _atom_site_fract_x
 _atom_site_fract_y
 _atom_site_fract_z
 _atom_site_occupancy
 _atom_site_charge
Sr  Sr1  1  0.33333333  0.66666667  0.24990000  1.0 1.4578991783
Sr  Sr2  1  0.66666667  0.33333333  0.74990000  1.0 1.4578991783
Cu  Cu1  1  0.44573000  0.58016000  0.38022000  1.0 0.8945032132
Cu  Cu2  1  0.41984000  0.86557000  0.38022000  1.0 0.8945032132
Cu  Cu3  1  0.13443000  0.55427000  0.38022000  1.0 0.8945032132
Cu  Cu4  1  0.55427000  0.41984000  0.88022000  1.0 0.8945032132
Cu  Cu5  1  0.58016000  0.13443000  0.88022000  1.0 0.8945032132
Cu  Cu6  1  0.86557000  0.44573000  0.88022000  1.0 0.8954812539
Cu  Cu7  1  0.44286000  0.57701000  0.12131000  1.0 0.8836623582
Cu  Cu8  1  0.42299000  0.86585000  0.12131000  1.0 0.8836623582
Cu  Cu9  1  0.13415000  0.55714000  0.12131000  1.0 0.8836623582
Cu  Cu10  1  0.55714000  0.42299000  0.62131000  1.0 0.8836623582
Cu  Cu11  1  0.57701000  0.13415000  0.62131000  1.0 0.8836623582
Cu  Cu12  1  0.86585000  0.44286000  0.62131000  1.0 0.8836623582
H  H1  1  0.31908000  0.48861000  0.60085000  1.0 0.1298979548
H  H2  1  0.51139000  0.83047000  0.60085000  1.0 0.1298979548
H  H3  1  0.16953000  0.68092000  0.60085000  1.0 0.1298979548
H  H4  1  0.68092000  0.51139000  0.10085000  1.0 0.1298979548
H  H5  1  0.48861000  0.16953000  0.10085000  1.0 0.1298979548
H  H6  1  0.83047000  0.31908000  0.10085000  1.0 0.1298979548
H  H7  1  0.72311000  0.59472000  0.47255000  1.0 0.1298979548
H  H8  1  0.40528000  0.12839000  0.47255000  1.0 0.1298979548
H  H9  1  0.87161000  0.27689000  0.47255000  1.0 0.1298979548
H  H10  1  0.27689000  0.40528000  0.97255000  1.0 0.1298979548
H  H11  1  0.59472000  0.87161000  0.97255000  1.0 0.1298979548
H  H12  1  0.12839000  0.72311000  0.97255000  1.0 0.1298979548
H  H13  1  0.20246000  0.35570000  0.56436000  1.0 0.1175806632
H  H14  1  0.64430000  0.84676000  0.56436000  1.0 0.1175806632
H  H15  1  0.15324000  0.79754000  0.56436000  1.0 0.1175806632
H  H16  1  0.79754000  0.64430000  0.06436000  1.0 0.1175806632
H  H17  1  0.35570000  0.15324000  0.06436000  1.0 0.1175806632
H  H18  1  0.84676000  0.20246000  0.06436000  1.0 0.1175806632
H  H19  1  0.28079000  0.34003000  0.56330000  1.0 0.1392410648
H  H20  1  0.65997000  0.94076000  0.56330000  1.0 0.1392410648
H  H21  1  0.05924000  0.71921000  0.56330000  1.0 0.1392410648
H  H22  1  0.71921000  0.65997000  0.06330000  1.0 0.1392410648
H  H23  1  0.34003000  0.05924000  0.06330000  1.0 0.1392410648
H  H24  1  0.94076000  0.28079000  0.06330000  1.0 0.1392410648
H  H25  1  0.08181000  0.27822000  0.36667000  1.0 0.1497258497
H  H26  1  0.72178000  0.80359000  0.36667000  1.0 0.1497258497
H  H27  1  0.19641000  0.91819000  0.36667000  1.0 0.1497258497
H  H28  1  0.91819000  0.72178000  0.86667000  1.0 0.1497258497
H  H29  1  0.27822000  0.19641000  0.86667000  1.0 0.1497258497
H  H30  1  0.80359000  0.08181000  0.86667000  1.0 0.1497258497
H  H31  1  0.09576000  0.26305000  0.48182000  1.0 0.1175806632
H  H32  1  0.73695000  0.83271000  0.48182000  1.0 0.1175806632
H  H33  1  0.16729000  0.90424000  0.48182000  1.0 0.1175806632
H  H34  1  0.90424000  0.73695000  0.98182000  1.0 0.1175806632
H  H35  1  0.26305000  0.16729000  0.98182000  1.0 0.1175806632
H  H36  1  0.83271000  0.09576000  0.98182000  1.0 0.1175806632
H  H37  1  0.11725000  0.35459000  0.44488000  1.0 0.1392410648
H  H38  1  0.64541000  0.76266000  0.44488000  1.0 0.1392410648
H  H39  1  0.23734000  0.88275000  0.44488000  1.0 0.1392410648
H  H40  1  0.88275000  0.64541000  0.94488000  1.0 0.1392410648
H  H41  1  0.35459000  0.23734000  0.94488000  1.0 0.1392410648
H  H42  1  0.76266000  0.11725000  0.94488000  1.0 0.1392410648
H  H43  1  0.64581000  0.51008000  0.32226000  1.0 0.1175806632
H  H44  1  0.48992000  0.13573000  0.32226000  1.0 0.1175806632
H  H45  1  0.86427000  0.35419000  0.32226000  1.0 0.1175806632
H  H46  1  0.35419000  0.48992000  0.82226000  1.0 0.1175806632
H  H47  1  0.51008000  0.86427000  0.82226000  1.0 0.1175806632
H  H48  1  0.13573000  0.64581000  0.82226000  1.0 0.1175806632
H  H49  1  0.73265000  0.51376000  0.33624000  1.0 0.1013244231
H  H50  1  0.48624000  0.21889000  0.33624000  1.0 0.1013244231
H  H51  1  0.78111000  0.26735000  0.33624000  1.0 0.1013244231
H  H52  1  0.26735000  0.48624000  0.83624000  1.0 0.1013244231
H  H53  1  0.51376000  0.78111000  0.83624000  1.0 0.1013244231
H  H54  1  0.21889000  0.73265000  0.83624000  1.0 0.1013244231
H  H55  1  0.67317000  0.38413000  0.32468000  1.0 0.3194045526
H  H56  1  0.61587000  0.28904000  0.32468000  1.0 0.3194045526
H  H57  1  0.71096000  0.32683000  0.32468000  1.0 0.3194045526
H  H58  1  0.32683000  0.61587000  0.82468000  1.0 0.3194045526
H  H59  1  0.38413000  0.71096000  0.82468000  1.0 0.3194045526
H  H60  1  0.28904000  0.67317000  0.82468000  1.0 0.3194045526
C  C1  1  0.72150000  0.49060000  0.54360000  1.0 0.5816778195
C  C2  1  0.50940000  0.23090000  0.54360000  1.0 0.5816778195
C  C3  1  0.76910000  0.27850000  0.54360000  1.0 0.5816778195
C  C4  1  0.27850000  0.50940000  0.04360000  1.0 0.5816778195
C  C5  1  0.49060000  0.76910000  0.04360000  1.0 0.5816778195
C  C6  1  0.23090000  0.72150000  0.04360000  1.0 0.5816778195
C  C7  1  0.27690000  0.50950000  0.45780000  1.0 0.554006542
C  C8  1  0.49050000  0.76740000  0.45780000  1.0 0.554006542
C  C9  1  0.23260000  0.72310000  0.45780000  1.0 0.554006542
C  C10  1  0.72310000  0.49050000  0.95780000  1.0 0.554006542
C  C11  1  0.50950000  0.23260000  0.95780000  1.0 0.554006542
C  C12  1  0.76740000  0.27690000  0.95780000  1.0 0.554006542
C  C13  1  0.46210000  0.48240000  0.52700000  1.0 0.3462726625
C  C14  1  0.51760000  0.97970000  0.52700000  1.0 0.3462726625
C  C15  1  0.02030000  0.53790000  0.52700000  1.0 0.3462726625
C  C16  1  0.53790000  0.51760000  0.02700000  1.0 0.3462726625
C  C17  1  0.48240000  0.02030000  0.02700000  1.0 0.3462726625
C  C18  1  0.97970000  0.46210000  0.02700000  1.0 0.3462726625
C  C19  1  0.54640000  0.52470000  0.47030000  1.0 0.3777339063
C  C20  1  0.47530000  0.02170000  0.47030000  1.0 0.3777339063
C  C21  1  0.97830000  0.45360000  0.47030000  1.0 0.3777339063
C  C22  1  0.45360000  0.47530000  0.97030000  1.0 0.3777339063
C  C23  1  0.52470000  0.97830000  0.97030000  1.0 0.3777339063
C  C24  1  0.02170000  0.54640000  0.97030000  1.0 0.3777339063
C  C25  1  0.31820000  0.46840000  0.53100000  1.0 0.0144485896
C  C26  1  0.53160000  0.84980000  0.53100000  1.0 0.0144485896
C  C27  1  0.15020000  0.68180000  0.53100000  1.0 0.0144485896
C  C28  1  0.68180000  0.53160000  0.03100000  1.0 0.0144485896
C  C29  1  0.46840000  0.15020000  0.03100000  1.0 0.0144485896
C  C30  1  0.84980000  0.31820000  0.03100000  1.0 0.0144485896
C  C31  1  0.68610000  0.53220000  0.47540000  1.0 -0.028131938
C  C32  1  0.46780000  0.15390000  0.47540000  1.0 -0.028131938
C  C33  1  0.84610000  0.31390000  0.47540000  1.0 -0.028131938
C  C34  1  0.31390000  0.46780000  0.97540000  1.0 -0.028131938
C  C35  1  0.53220000  0.84610000  0.97540000  1.0 -0.028131938
C  C36  1  0.15390000  0.68610000  0.97540000  1.0 -0.028131938
C  C37  1  0.25500000  0.36900000  0.52800000  1.0 -0.258391087
C  C38  1  0.63100000  0.88600000  0.52800000  1.0 -0.258391087
C  C39  1  0.11400000  0.74500000  0.52800000  1.0 -0.258391087
C  C40  1  0.74500000  0.63100000  0.02800000  1.0 -0.258391087
C  C41  1  0.36900000  0.11400000  0.02800000  1.0 -0.258391087
C  C42  1  0.88600000  0.25500000  0.02800000  1.0 -0.258391087
C  C43  1  0.11700000  0.30300000  0.42600000  1.0 -0.4006685662
C  C44  1  0.69700000  0.81400000  0.42600000  1.0 -0.4006685662
C  C45  1  0.18600000  0.88300000  0.42600000  1.0 -0.4006685662
C  C46  1  0.88300000  0.69700000  0.92600000  1.0 -0.4006685662
C  C47  1  0.30300000  0.18600000  0.92600000  1.0 -0.4006685662
C  C48  1  0.81400000  0.11700000  0.92600000  1.0 -0.4006685662
C  C49  1  0.67500000  0.48700000  0.36300000  1.0 -0.0363404159
C  C50  1  0.51300000  0.18800000  0.36300000  1.0 -0.0363404159
C  C51  1  0.81200000  0.32500000  0.36300000  1.0 -0.0363404159
C  C52  1  0.32500000  0.51300000  0.86300000  1.0 -0.0363404159
C  C53  1  0.48700000  0.81200000  0.86300000  1.0 -0.0363404159
C  C54  1  0.18800000  0.67500000  0.86300000  1.0 -0.0363404159
S  S1  1  0.22900000  0.32900000  0.39600000  1.0 0.0698626578
S  S2  1  0.67100000  0.90000000  0.39600000  1.0 0.0698626578
S  S3  1  0.10000000  0.77100000  0.39600000  1.0 0.0698626578
S  S4  1  0.77100000  0.67100000  0.89600000  1.0 0.0698626578
S  S5  1  0.32900000  0.10000000  0.89600000  1.0 0.0698626578
S  S6  1  0.90000000  0.22900000  0.89600000  1.0 0.0698626578
N  N1  1  0.40680000  0.50460000  0.49620000  1.0 -0.4092274273
N  N2  1  0.49540000  0.90220000  0.49620000  1.0 -0.4092274273
N  N3  1  0.09780000  0.59320000  0.49620000  1.0 -0.4092274273
N  N4  1  0.59320000  0.49540000  0.99620000  1.0 -0.4092274273
N  N5  1  0.50460000  0.09780000  0.99620000  1.0 -0.4092274273
N  N6  1  0.90220000  0.40680000  0.99620000  1.0 -0.4092274273
N  N7  1  0.59890000  0.50610000  0.51180000  1.0 -0.4092274273
N  N8  1  0.49390000  0.09280000  0.51180000  1.0 -0.4092274273
N  N9  1  0.90720000  0.40110000  0.51180000  1.0 -0.4092274273
N  N10  1  0.40110000  0.49390000  0.01180000  1.0 -0.4092274273
N  N11  1  0.50610000  0.90720000  0.01180000  1.0 -0.4092274273
N  N12  1  0.09280000  0.59890000  0.01180000  1.0 -0.4092274273
O  O1  1  0.46650000  0.63730000  0.25070000  1.0 -0.7975071418
O  O2  1  0.36270000  0.82920000  0.25070000  1.0 -0.7975071418
O  O3  1  0.17080000  0.53350000  0.25070000  1.0 -0.7975071418
O  O4  1  0.53350000  0.36270000  0.75070000  1.0 -0.7975071418
O  O5  1  0.63730000  0.17080000  0.75070000  1.0 -0.7975071418
O  O6  1  0.82920000  0.46650000  0.75070000  1.0 -0.7975071418
O  O7  1  0.32650000  0.55860000  0.38580000  1.0 -0.5307488886
O  O8  1  0.44140000  0.76790000  0.38580000  1.0 -0.5307488886
O  O9  1  0.23210000  0.67350000  0.38580000  1.0 -0.5307488886
O  O10  1  0.67350000  0.44140000  0.88580000  1.0 -0.5307488886
O  O11  1  0.55860000  0.23210000  0.88580000  1.0 -0.5307488886
O  O12  1  0.76790000  0.32650000  0.88580000  1.0 -0.5307488886
O  O13  1  0.67710000  0.44080000  0.61450000  1.0 -0.5307488886
O  O14  1  0.55920000  0.23630000  0.61450000  1.0 -0.5307488886
O  O15  1  0.76370000  0.32290000  0.61450000  1.0 -0.5307488886
O  O16  1  0.32290000  0.55920000  0.11450000  1.0 -0.5307488886
O  O17  1  0.44080000  0.76370000  0.11450000  1.0 -0.5307488886
O  O18  1  0.23630000  0.67710000  0.11450000  1.0 -0.5307488886
O  O19  1  0.55200000  0.57010000  0.39400000  1.0 -0.4388339865
O  O20  1  0.42990000  0.98190000  0.39400000  1.0 -0.4388339865
O  O21  1  0.01810000  0.44800000  0.39400000  1.0 -0.4388339865
O  O22  1  0.44800000  0.42990000  0.89400000  1.0 -0.4388339865
O  O23  1  0.57010000  0.01810000  0.89400000  1.0 -0.4388339865
O  O24  1  0.98190000  0.55200000  0.89400000  1.0 -0.4388339865
O  O25  1  0.44720000  0.42630000  0.60100000  1.0 -0.434159528
O  O26  1  0.57370000  0.02090000  0.60100000  1.0 -0.434159528
O  O27  1  0.97910000  0.55280000  0.60100000  1.0 -0.4388339865
O  O28  1  0.55280000  0.57370000  0.10100000  1.0 -0.434159528
O  O29  1  0.42630000  0.97910000  0.10100000  1.0 -0.434159528
O  O30  1  0.02090000  0.44720000  0.10100000  1.0 -0.434159528
O  O31  1  0.80220000  0.51250000  0.52660000  1.0 -0.5307488886
O  O32  1  0.48750000  0.28970000  0.52660000  1.0 -0.5307488886
O  O33  1  0.71030000  0.19780000  0.52660000  1.0 -0.5307488886
O  O34  1  0.19780000  0.48750000  0.02660000  1.0 -0.5307488886
O  O35  1  0.51250000  0.71030000  0.02660000  1.0 -0.5307488886
O  O36  1  0.28970000  0.80220000  0.02660000  1.0 -0.5307488886
O  O37  1  0.20490000  0.49320000  0.47300000  1.0 -0.4550978589
O  O38  1  0.50680000  0.71170000  0.47300000  1.0 -0.4550978589
O  O39  1  0.28830000  0.79510000  0.47300000  1.0 -0.4550978589
O  O40  1  0.79510000  0.50680000  0.97300000  1.0 -0.4550978589
O  O41  1  0.49320000  0.28830000  0.97300000  1.0 -0.4550978589
O  O42  1  0.71170000  0.20490000  0.97300000  1.0 -0.4546985972
O  O43  1  0.63600000  0.39800000  0.32600000  1.0 -0.4092274273
O  O44  1  0.60200000  0.23800000  0.32600000  1.0 -0.4092274273
O  O45  1  0.76200000  0.36400000  0.32600000  1.0 -0.4092274273
O  O46  1  0.36400000  0.60200000  0.82600000  1.0 -0.4092274273
O  O47  1  0.39800000  0.76200000  0.82600000  1.0 -0.4092274273
O  O48  1  0.23800000  0.63600000  0.82600000  1.0 -0.4092274273
