# DDEC6 charges by PACMAN v1.1 (https://github.com/mtap-research/PACMAN-charge/)
data_ZIMJOW_FSR_pacman
_symmetry_space_group_name_H-M   'P 1'
_cell_length_a   11.79920000
_cell_length_b   11.86060000
_cell_length_c   13.63010000
_cell_angle_alpha   95.26300000
_cell_angle_beta   108.54700000
_cell_angle_gamma   108.08100000
_symmetry_Int_Tables_number   1
_chemical_formula_structural   Ce2H16C20(NO7)3
_chemical_formula_sum   'Ce4 H32 C40 N6 O42'
_cell_volume   1680.28154925
_cell_formula_units_Z   2
loop_
 _symmetry_equiv_pos_site_id
 _symmetry_equiv_pos_as_xyz
  1  'x, y, z'
loop_
 _atom_site_type_symbol
 _atom_site_label
 _atom_site_symmetry_multiplicity
 _atom_site_fract_x
 _atom_site_fract_y
 _atom_site_fract_z
 _atom_site_occupancy
 _atom_site_charge
Ce  Ce1  1  0.99861000  0.00220000  0.25020000  1.0 1.8981792696
Ce  Ce2  1  0.00139000  0.99780000  0.74980000  1.0 1.8981792696
Ce  Ce3  1  0.62747000  0.64136000  0.38765000  1.0 1.0322528847
Ce  Ce4  1  0.37253000  0.35864000  0.61235000  1.0 1.0322528847
H  H1  1  0.38080000  0.80480000  0.30630000  1.0 0.1543314226
H  H2  1  0.61920000  0.19520000  0.69370000  1.0 0.1543314226
H  H3  1  0.53100000  0.16690000  0.41600000  1.0 0.1421845573
H  H4  1  0.46900000  0.83310000  0.58400000  1.0 0.1421845573
H  H5  1  0.46630000  0.83010000  0.13630000  1.0 0.1600457795
H  H6  1  0.53370000  0.16990000  0.86370000  1.0 0.1600457795
H  H7  1  0.60340000  0.18440000  0.13030000  1.0 0.1421845573
H  H8  1  0.39660000  0.81560000  0.86970000  1.0 0.1421845573
H  H9  1  0.76790000  0.07460000  0.48790000  1.0 0.2686991163
H  H10  1  0.23210000  0.92540000  0.51210000  1.0 0.2686991163
H  H11  1  0.29430000  0.10250000  0.04590000  1.0 0.378394521
H  H12  1  0.70570000  0.89750000  0.95410000  1.0 0.378394521
H  H13  1  0.86000000  0.69000000  0.33100000  1.0 0.3363341061
H  H14  1  0.14000000  0.31000000  0.66900000  1.0 0.3344887264
H  H15  1  0.93100000  0.65400000  0.40700000  1.0 0.3363341061
H  H16  1  0.06900000  0.34600000  0.59300000  1.0 0.3363341061
H  H17  1  0.86910000  0.49670000  0.60050000  1.0 0.1308982318
H  H18  1  0.13090000  0.50330000  0.39950000  1.0 0.1308982318
H  H19  1  0.83170000  0.61140000  0.61570000  1.0 0.1308982318
H  H20  1  0.16830000  0.38860000  0.38430000  1.0 0.1308982318
H  H21  1  0.55670000  0.39200000  0.46670000  1.0 0.3559898205
H  H22  1  0.44330000  0.60800000  0.53330000  1.0 0.3559898205
H  H23  1  0.84100000  0.58100000  0.77700000  1.0 0.2327919968
H  H24  1  0.15900000  0.41900000  0.22300000  1.0 0.2327919968
H  H25  1  0.87300000  0.48300000  0.76800000  1.0 0.2540863968
H  H26  1  0.12700000  0.51700000  0.23200000  1.0 0.2540863968
H  H27  1  0.52400000  0.41100000  0.18340000  1.0 0.3188010819
H  H28  1  0.47600000  0.58900000  0.81660000  1.0 0.3188010819
H  H29  1  0.56300000  0.38000000  0.27300000  1.0 0.2952762313
H  H30  1  0.43700000  0.62000000  0.72700000  1.0 0.2952762313
H  H31  1  0.76760000  0.07790000  0.41120000  1.0 0.282852716
H  H32  1  0.23240000  0.92210000  0.58880000  1.0 0.282852716
C  C1  1  0.25190000  0.88950000  0.28477000  1.0 0.1421845573
C  C2  1  0.74810000  0.11050000  0.71523000  1.0 0.1421845573
C  C3  1  0.37190000  0.87960000  0.31769000  1.0 -0.1321429617
C  C4  1  0.62810000  0.12040000  0.68231000  1.0 -0.1321429617
C  C5  1  0.47780000  0.98480000  0.36816000  1.0 -0.006046667
C  C6  1  0.52220000  0.01520000  0.63184000  1.0 -0.006046667
C  C7  1  0.46090000  0.09490000  0.38486000  1.0 -0.1772651828
C  C8  1  0.53910000  0.90510000  0.61514000  1.0 -0.1772651828
C  C9  1  0.33700000  0.09500000  0.35400000  1.0 0.1308982318
C  C10  1  0.66300000  0.90500000  0.64600000  1.0 0.1308982318
C  C11  1  0.13040000  0.78290000  0.22279000  1.0 0.5608734556
C  C12  1  0.86960000  0.21710000  0.77721000  1.0 0.5608734556
C  C13  1  0.60880000  0.97660000  0.40790000  1.0 0.4796986051
C  C14  1  0.39120000  0.02340000  0.59210000  1.0 0.4796986051
C  C15  1  0.30470000  0.20540000  0.37915000  1.0 0.5705580481
C  C16  1  0.69530000  0.79460000  0.62085000  1.0 0.5705580481
C  C17  1  0.65900000  0.90400000  0.17821000  1.0 0.1212036975
C  C18  1  0.34100000  0.09600000  0.82179000  1.0 0.1212036975
C  C19  1  0.53400000  0.90120000  0.14528000  1.0 -0.1321429617
C  C20  1  0.46600000  0.09880000  0.85472000  1.0 -0.1321429617
C  C21  1  0.51240000  0.00700000  0.12610000  1.0 0.0001974168
C  C22  1  0.48760000  0.99300000  0.87390000  1.0 -0.000539922
C  C23  1  0.61530000  0.11180000  0.14071000  1.0 -0.1405768923
C  C24  1  0.38470000  0.88820000  0.85929000  1.0 -0.1405768923
C  C25  1  0.73700000  0.10510000  0.17140000  1.0 0.1308982318
C  C26  1  0.26300000  0.89490000  0.82860000  1.0 0.1308982318
C  C27  1  0.69600000  0.79780000  0.20807000  1.0 0.5705580481
C  C28  1  0.30400000  0.20220000  0.79193000  1.0 0.5705580481
C  C29  1  0.37620000  0.00270000  0.08608000  1.0 0.5380078025
C  C30  1  0.62380000  0.99730000  0.91392000  1.0 0.5380078025
C  C31  1  0.85630000  0.21100000  0.18637000  1.0 0.5608734556
C  C32  1  0.14370000  0.78900000  0.81363000  1.0 0.5608734556
C  C33  1  0.93080000  0.95380000  0.97614000  1.0 0.5090393193
C  C34  1  0.06920000  0.04620000  0.02386000  1.0 0.5090393193
C  C35  1  0.95830000  0.03960000  0.49147000  1.0 0.4796986051
C  C36  1  0.04170000  0.96040000  0.50853000  1.0 0.4796986051
C  C37  1  0.68390000  0.45280000  0.59090000  1.0 0.5959434874
C  C38  1  0.31610000  0.54720000  0.40910000  1.0 0.5959434874
C  C39  1  0.82280000  0.53240000  0.63320000  1.0 -0.1907185845
C  C40  1  0.17720000  0.46760000  0.36680000  1.0 -0.1907185845
N  N1  1  0.23471000  0.99390000  0.30441000  1.0 -0.3298880539
N  N2  1  0.76529000  0.00610000  0.69559000  1.0 -0.3298880539
N  N3  1  0.75794000  0.00337000  0.18913000  1.0 -0.3298880539
N  N4  1  0.24206000  0.99663000  0.81087000  1.0 -0.3298880539
N  N5  1  0.87760000  0.54670000  0.74870000  1.0 -0.33821223
N  N6  1  0.12240000  0.45330000  0.25130000  1.0 -0.33821223
O  O1  1  0.02854000  0.80595000  0.19360000  1.0 -0.5618999235
O  O2  1  0.97146000  0.19405000  0.80640000  1.0 -0.5618999235
O  O3  1  0.13794000  0.68226000  0.20148000  1.0 -0.4953685634
O  O4  1  0.86206000  0.31774000  0.79852000  1.0 -0.4953685634
O  O5  1  0.69770000  0.08180000  0.46750000  1.0 -0.1136843458
O  O6  1  0.30230000  0.91820000  0.53250000  1.0 -0.1136843458
O  O7  1  0.62677000  0.88255000  0.40013000  1.0 -0.511150562
O  O8  1  0.37323000  0.11745000  0.59987000  1.0 -0.511150562
O  O9  1  0.39296000  0.30621000  0.41945000  1.0 -0.5801936619
O  O10  1  0.60704000  0.69379000  0.58055000  1.0 -0.5801936619
O  O11  1  0.18871000  0.18723000  0.36051000  1.0 -0.5539970629
O  O12  1  0.81129000  0.81277000  0.63949000  1.0 -0.5618999235
O  O13  1  0.81355000  0.81485000  0.24028000  1.0 -0.5618999235
O  O14  1  0.18645000  0.18515000  0.75972000  1.0 -0.5618999235
O  O15  1  0.61062000  0.70071000  0.20205000  1.0 -0.574787461
O  O16  1  0.38938000  0.29929000  0.79795000  1.0 -0.574787461
O  O17  1  0.36943000  0.10799000  0.06757000  1.0 -0.4457335703
O  O18  1  0.63057000  0.89201000  0.93243000  1.0 -0.4457335703
O  O19  1  0.28606000  0.91144000  0.07008000  1.0 -0.429951214
O  O20  1  0.71394000  0.08856000  0.92992000  1.0 -0.429951214
O  O21  1  0.84689000  0.31238000  0.17891000  1.0 -0.511150562
O  O22  1  0.15311000  0.68762000  0.82109000  1.0 -0.511150562
O  O23  1  0.95784000  0.19005000  0.20558000  1.0 -0.5414631399
O  O24  1  0.04216000  0.80995000  0.79442000  1.0 -0.5414631399
O  O25  1  0.87585000  0.92283000  0.04003000  1.0 -0.5414631399
O  O26  1  0.12415000  0.07717000  0.95997000  1.0 -0.5414631399
O  O27  1  0.88398000  0.91769000  0.87784000  1.0 -0.5315941803
O  O28  1  0.11602000  0.08231000  0.12216000  1.0 -0.5315941803
O  O29  1  0.93041000  0.07092000  0.40481000  1.0 -0.5414631399
O  O30  1  0.06959000  0.92908000  0.59519000  1.0 -0.5414631399
O  O31  1  0.92390000  0.06493000  0.56619000  1.0 -0.5618999235
O  O32  1  0.07610000  0.93507000  0.43381000  1.0 -0.5618999235
O  O33  1  0.85650000  0.64350000  0.37120000  1.0 -0.66418662
O  O34  1  0.14350000  0.35650000  0.62880000  1.0 -0.66418662
O  O35  1  0.63241000  0.43583000  0.48718000  1.0 -0.5248777501
O  O36  1  0.36759000  0.56417000  0.51282000  1.0 -0.5248777501
O  O37  1  0.62798000  0.41103000  0.64630000  1.0 -0.4815566771
O  O38  1  0.37202000  0.58897000  0.35370000  1.0 -0.4815566771
O  O39  1  0.51400000  0.41220000  0.24127000  1.0 -0.6436230175
O  O40  1  0.48600000  0.58780000  0.75873000  1.0 -0.6436230175
O  O41  1  0.69530000  0.08030000  0.39040000  1.0 -0.0870991729
O  O42  1  0.30470000  0.91970000  0.60960000  1.0 -0.0870991729
