# DDEC6 charges by PACMAN v1.1 (https://github.com/mtap-research/PACMAN-charge/)
data_ZIMTAS_ASR_pacman
_symmetry_space_group_name_H-M   'P 1'
_cell_length_a   18.51530000
_cell_length_b   18.51530000
_cell_length_c   25.05760000
_cell_angle_alpha   90.00000000
_cell_angle_beta   90.00000000
_cell_angle_gamma   90.00000000
_symmetry_Int_Tables_number   1
_chemical_formula_structural   Cu4Si2H32C56N32Cl
_chemical_formula_sum   'Cu8 Si4 H64 C112 N64 Cl2'
_cell_volume   8590.15457309
_cell_formula_units_Z   2
loop_
 _symmetry_equiv_pos_site_id
 _symmetry_equiv_pos_as_xyz
  1  'x, y, z'
loop_
 _atom_site_type_symbol
 _atom_site_label
 _atom_site_symmetry_multiplicity
 _atom_site_fract_x
 _atom_site_fract_y
 _atom_site_fract_z
 _atom_site_occupancy
 _atom_site_charge
Cu  Cu1  1  0.59666000  0.40334000  0.50000000  1.0 0.523583678
Cu  Cu2  1  0.40334000  0.59666000  0.50000000  1.0 0.523583678
Cu  Cu3  1  0.09666000  0.09666000  0.00000000  1.0 0.5261381542
Cu  Cu4  1  0.90334000  0.90334000  0.00000000  1.0 0.5261381542
Cu  Cu5  1  0.50000000  0.50000000  0.60161000  1.0 0.4860018269
Cu  Cu6  1  0.00000000  0.00000000  0.10161000  1.0 0.4860018269
Cu  Cu7  1  0.00000000  0.00000000  0.89839000  1.0 0.4860018269
Cu  Cu8  1  0.50000000  0.50000000  0.39839000  1.0 0.4848367548
Si  Si1  1  0.50000000  0.00000000  0.75000000  1.0 0.6576996123
Si  Si2  1  0.50000000  0.00000000  0.25000000  1.0 0.6511717116
Si  Si3  1  0.00000000  0.50000000  0.75000000  1.0 0.6576996123
Si  Si4  1  0.00000000  0.50000000  0.25000000  1.0 0.6511717116
H  H1  1  0.43480000  0.24820000  0.70540000  1.0 0.1210533095
H  H2  1  0.56520000  0.75180000  0.70540000  1.0 0.1210533095
H  H3  1  0.25180000  0.93480000  0.20540000  1.0 0.1210533095
H  H4  1  0.74820000  0.06520000  0.20540000  1.0 0.1210533095
H  H5  1  0.06520000  0.74820000  0.79460000  1.0 0.1210533095
H  H6  1  0.93480000  0.25180000  0.79460000  1.0 0.1210533095
H  H7  1  0.24820000  0.43480000  0.29460000  1.0 0.1210533095
H  H8  1  0.75180000  0.56520000  0.29460000  1.0 0.1210533095
H  H9  1  0.56520000  0.75180000  0.29460000  1.0 0.1210533095
H  H10  1  0.43480000  0.24820000  0.29460000  1.0 0.1210533095
H  H11  1  0.74820000  0.06520000  0.79460000  1.0 0.1210533095
H  H12  1  0.25180000  0.93480000  0.79460000  1.0 0.1210533095
H  H13  1  0.93480000  0.25180000  0.20540000  1.0 0.1210533095
H  H14  1  0.06520000  0.74820000  0.20540000  1.0 0.1210533095
H  H15  1  0.75180000  0.56520000  0.70540000  1.0 0.1210533095
H  H16  1  0.24820000  0.43480000  0.70540000  1.0 0.1210533095
H  H17  1  0.43240000  0.14230000  0.75500000  1.0 0.1210533095
H  H18  1  0.56760000  0.85770000  0.75500000  1.0 0.1127989136
H  H19  1  0.35770000  0.93240000  0.25500000  1.0 0.1210533095
H  H20  1  0.64230000  0.06760000  0.25500000  1.0 0.1210533095
H  H21  1  0.06760000  0.64230000  0.74500000  1.0 0.1210533095
H  H22  1  0.93240000  0.35770000  0.74500000  1.0 0.1210533095
H  H23  1  0.14230000  0.43240000  0.24500000  1.0 0.1210533095
H  H24  1  0.85770000  0.56760000  0.24500000  1.0 0.1210533095
H  H25  1  0.56760000  0.85770000  0.24500000  1.0 0.1210533095
H  H26  1  0.43240000  0.14230000  0.24500000  1.0 0.1210533095
H  H27  1  0.64230000  0.06760000  0.74500000  1.0 0.1210533095
H  H28  1  0.35770000  0.93240000  0.74500000  1.0 0.1210533095
H  H29  1  0.93240000  0.35770000  0.25500000  1.0 0.1210533095
H  H30  1  0.06760000  0.64230000  0.25500000  1.0 0.1210533095
H  H31  1  0.85770000  0.56760000  0.75500000  1.0 0.1127989136
H  H32  1  0.14230000  0.43240000  0.75500000  1.0 0.1210533095
H  H33  1  0.55970000  0.04570000  0.64670000  1.0 0.1127989136
H  H34  1  0.44030000  0.95430000  0.64670000  1.0 0.1127989136
H  H35  1  0.45430000  0.05970000  0.14670000  1.0 0.1127989136
H  H36  1  0.54570000  0.94030000  0.14670000  1.0 0.1127989136
H  H37  1  0.94030000  0.54570000  0.85330000  1.0 0.1127989136
H  H38  1  0.05970000  0.45430000  0.85330000  1.0 0.1127989136
H  H39  1  0.04570000  0.55970000  0.35330000  1.0 0.1127989136
H  H40  1  0.95430000  0.44030000  0.35330000  1.0 0.1127989136
H  H41  1  0.44030000  0.95430000  0.35330000  1.0 0.1127989136
H  H42  1  0.55970000  0.04570000  0.35330000  1.0 0.1127989136
H  H43  1  0.54570000  0.94030000  0.85330000  1.0 0.1127989136
H  H44  1  0.45430000  0.05970000  0.85330000  1.0 0.1127989136
H  H45  1  0.05970000  0.45430000  0.14670000  1.0 0.1127989136
H  H46  1  0.94030000  0.54570000  0.14670000  1.0 0.1127989136
H  H47  1  0.95430000  0.44030000  0.64670000  1.0 0.1127989136
H  H48  1  0.04570000  0.55970000  0.64670000  1.0 0.1127989136
H  H49  1  0.56250000  0.15200000  0.59710000  1.0 0.1210533095
H  H50  1  0.43750000  0.84800000  0.59710000  1.0 0.1210533095
H  H51  1  0.34800000  0.06250000  0.09710000  1.0 0.1210533095
H  H52  1  0.65200000  0.93750000  0.09710000  1.0 0.1210533095
H  H53  1  0.93750000  0.65200000  0.90290000  1.0 0.1210533095
H  H54  1  0.06250000  0.34800000  0.90290000  1.0 0.1210533095
H  H55  1  0.15200000  0.56250000  0.40290000  1.0 0.1210533095
H  H56  1  0.84800000  0.43750000  0.40290000  1.0 0.1210533095
H  H57  1  0.43750000  0.84800000  0.40290000  1.0 0.1210533095
H  H58  1  0.56250000  0.15200000  0.40290000  1.0 0.1210533095
H  H59  1  0.65200000  0.93750000  0.90290000  1.0 0.1210533095
H  H60  1  0.34800000  0.06250000  0.90290000  1.0 0.1210533095
H  H61  1  0.06250000  0.34800000  0.09710000  1.0 0.1210533095
H  H62  1  0.93750000  0.65200000  0.09710000  1.0 0.1210533095
H  H63  1  0.84800000  0.43750000  0.59710000  1.0 0.1210533095
H  H64  1  0.15200000  0.56250000  0.59710000  1.0 0.1210533095
C  C1  1  0.50646000  0.27883000  0.61688000  1.0 0.2324659502
C  C2  1  0.49354000  0.72117000  0.61688000  1.0 0.2324659502
C  C3  1  0.22117000  0.00646000  0.11688000  1.0 0.2324659502
C  C4  1  0.77883000  0.99354000  0.11688000  1.0 0.2324659502
C  C5  1  0.99354000  0.77883000  0.88312000  1.0 0.2324659502
C  C6  1  0.00646000  0.22117000  0.88312000  1.0 0.2324659502
C  C7  1  0.27883000  0.50646000  0.38312000  1.0 0.2324659502
C  C8  1  0.72117000  0.49354000  0.38312000  1.0 0.2324659502
C  C9  1  0.49354000  0.72117000  0.38312000  1.0 0.2324659502
C  C10  1  0.50646000  0.27883000  0.38312000  1.0 0.2324659502
C  C11  1  0.77883000  0.99354000  0.88312000  1.0 0.2324659502
C  C12  1  0.22117000  0.00646000  0.88312000  1.0 0.2324659502
C  C13  1  0.00646000  0.22117000  0.11688000  1.0 0.2324659502
C  C14  1  0.99354000  0.77883000  0.11688000  1.0 0.2324659502
C  C15  1  0.72117000  0.49354000  0.61688000  1.0 0.2324659502
C  C16  1  0.27883000  0.50646000  0.61688000  1.0 0.2324659502
C  C17  1  0.50005000  0.21064000  0.64668000  1.0 0.0455671361
C  C18  1  0.49995000  0.78936000  0.64668000  1.0 0.0455671361
C  C19  1  0.28936000  0.00005000  0.14668000  1.0 0.0455671361
C  C20  1  0.71064000  0.99995000  0.14668000  1.0 0.0455671361
C  C21  1  0.99995000  0.71064000  0.85332000  1.0 0.0455671361
C  C22  1  0.00005000  0.28936000  0.85332000  1.0 0.0455671361
C  C23  1  0.21064000  0.50005000  0.35332000  1.0 0.0447177341
C  C24  1  0.78936000  0.49995000  0.35332000  1.0 0.0455671361
C  C25  1  0.49995000  0.78936000  0.35332000  1.0 0.0447177341
C  C26  1  0.50005000  0.21064000  0.35332000  1.0 0.0455671361
C  C27  1  0.71064000  0.99995000  0.85332000  1.0 0.0455671361
C  C28  1  0.28936000  0.00005000  0.85332000  1.0 0.0455671361
C  C29  1  0.00005000  0.28936000  0.14668000  1.0 0.0447177341
C  C30  1  0.99995000  0.71064000  0.14668000  1.0 0.0455671361
C  C31  1  0.78936000  0.49995000  0.64668000  1.0 0.0455671361
C  C32  1  0.21064000  0.50005000  0.64668000  1.0 0.0455671361
C  C33  1  0.46093000  0.20716000  0.69337000  1.0 -0.1025481346
C  C34  1  0.53907000  0.79284000  0.69337000  1.0 -0.1025481346
C  C35  1  0.29284000  0.96093000  0.19337000  1.0 -0.1025481346
C  C36  1  0.70716000  0.03907000  0.19337000  1.0 -0.1025481346
C  C37  1  0.03907000  0.70716000  0.80663000  1.0 -0.1025481346
C  C38  1  0.96093000  0.29284000  0.80663000  1.0 -0.1025481346
C  C39  1  0.20716000  0.46093000  0.30663000  1.0 -0.1025481346
C  C40  1  0.79284000  0.53907000  0.30663000  1.0 -0.1025481346
C  C41  1  0.53907000  0.79284000  0.30663000  1.0 -0.1025481346
C  C42  1  0.46093000  0.20716000  0.30663000  1.0 -0.1025481346
C  C43  1  0.70716000  0.03907000  0.80663000  1.0 -0.1025481346
C  C44  1  0.29284000  0.96093000  0.80663000  1.0 -0.1025481346
C  C45  1  0.96093000  0.29284000  0.19337000  1.0 -0.1025481346
C  C46  1  0.03907000  0.70716000  0.19337000  1.0 -0.1025481346
C  C47  1  0.79284000  0.53907000  0.69337000  1.0 -0.1025481346
C  C48  1  0.20716000  0.46093000  0.69337000  1.0 -0.1025481346
C  C49  1  0.45961000  0.14374000  0.72290000  1.0 -0.0895038099
C  C50  1  0.54039000  0.85626000  0.72290000  1.0 -0.0895038099
C  C51  1  0.35626000  0.95961000  0.22290000  1.0 -0.0895038099
C  C52  1  0.64374000  0.04039000  0.22290000  1.0 -0.0895038099
C  C53  1  0.04039000  0.64374000  0.77710000  1.0 -0.0895038099
C  C54  1  0.95961000  0.35626000  0.77710000  1.0 -0.0895038099
C  C55  1  0.14374000  0.45961000  0.27710000  1.0 -0.0895038099
C  C56  1  0.85626000  0.54039000  0.27710000  1.0 -0.0895038099
C  C57  1  0.54039000  0.85626000  0.27710000  1.0 -0.0895038099
C  C58  1  0.45961000  0.14374000  0.27710000  1.0 -0.0895038099
C  C59  1  0.64374000  0.04039000  0.77710000  1.0 -0.0895038099
C  C60  1  0.35626000  0.95961000  0.77710000  1.0 -0.0895038099
C  C61  1  0.95961000  0.35626000  0.22290000  1.0 -0.0895038099
C  C62  1  0.04039000  0.64374000  0.22290000  1.0 -0.0895038099
C  C63  1  0.85626000  0.54039000  0.72290000  1.0 -0.0895038099
C  C64  1  0.14374000  0.45961000  0.72290000  1.0 -0.0895038099
C  C65  1  0.49678000  0.08257000  0.70696000  1.0 -0.205742754
C  C66  1  0.50322000  0.91743000  0.70696000  1.0 -0.205742754
C  C67  1  0.41743000  0.99678000  0.20696000  1.0 -0.205742754
C  C68  1  0.58257000  0.00322000  0.20696000  1.0 -0.2047564784
C  C69  1  0.00322000  0.58257000  0.79304000  1.0 -0.2047564784
C  C70  1  0.99678000  0.41743000  0.79304000  1.0 -0.2047564784
C  C71  1  0.08257000  0.49678000  0.29304000  1.0 -0.205742754
C  C72  1  0.91743000  0.50322000  0.29304000  1.0 -0.205742754
C  C73  1  0.50322000  0.91743000  0.29304000  1.0 -0.205742754
C  C74  1  0.49678000  0.08257000  0.29304000  1.0 -0.205742754
C  C75  1  0.58257000  0.00322000  0.79304000  1.0 -0.2047564784
C  C76  1  0.41743000  0.99678000  0.79304000  1.0 -0.205742754
C  C77  1  0.99678000  0.41743000  0.20696000  1.0 -0.205742754
C  C78  1  0.00322000  0.58257000  0.20696000  1.0 -0.205742754
C  C79  1  0.91743000  0.50322000  0.70696000  1.0 -0.205742754
C  C80  1  0.08257000  0.49678000  0.70696000  1.0 -0.205742754
C  C81  1  0.53441000  0.08696000  0.65940000  1.0 -0.0895038099
C  C82  1  0.46559000  0.91304000  0.65940000  1.0 -0.0895038099
C  C83  1  0.41304000  0.03441000  0.15940000  1.0 -0.0895038099
C  C84  1  0.58696000  0.96559000  0.15940000  1.0 -0.0895038099
C  C85  1  0.96559000  0.58696000  0.84060000  1.0 -0.0895038099
C  C86  1  0.03441000  0.41304000  0.84060000  1.0 -0.0895038099
C  C87  1  0.08696000  0.53441000  0.34060000  1.0 -0.0895038099
C  C88  1  0.91304000  0.46559000  0.34060000  1.0 -0.0895038099
C  C89  1  0.46559000  0.91304000  0.34060000  1.0 -0.0895038099
C  C90  1  0.53441000  0.08696000  0.34060000  1.0 -0.0895038099
C  C91  1  0.58696000  0.96559000  0.84060000  1.0 -0.0895038099
C  C92  1  0.41304000  0.03441000  0.84060000  1.0 -0.0895038099
C  C93  1  0.03441000  0.41304000  0.15940000  1.0 -0.0895038099
C  C94  1  0.96559000  0.58696000  0.15940000  1.0 -0.0895038099
C  C95  1  0.91304000  0.46559000  0.65940000  1.0 -0.0895038099
C  C96  1  0.08696000  0.53441000  0.65940000  1.0 -0.0895038099
C  C97  1  0.53606000  0.15046000  0.62962000  1.0 -0.1025481346
C  C98  1  0.46394000  0.84954000  0.62962000  1.0 -0.1025481346
C  C99  1  0.34954000  0.03606000  0.12962000  1.0 -0.1025481346
C  C100  1  0.65046000  0.96394000  0.12962000  1.0 -0.1025481346
C  C101  1  0.96394000  0.65046000  0.87038000  1.0 -0.1025481346
C  C102  1  0.03606000  0.34954000  0.87038000  1.0 -0.1025481346
C  C103  1  0.15046000  0.53606000  0.37038000  1.0 -0.1025481346
C  C104  1  0.84954000  0.46394000  0.37038000  1.0 -0.1025481346
C  C105  1  0.46394000  0.84954000  0.37038000  1.0 -0.1025481346
C  C106  1  0.53606000  0.15046000  0.37038000  1.0 -0.1025481346
C  C107  1  0.65046000  0.96394000  0.87038000  1.0 -0.1025481346
C  C108  1  0.34954000  0.03606000  0.87038000  1.0 -0.1025481346
C  C109  1  0.03606000  0.34954000  0.12962000  1.0 -0.1025481346
C  C110  1  0.96394000  0.65046000  0.12962000  1.0 -0.1025481346
C  C111  1  0.84954000  0.46394000  0.62962000  1.0 -0.1025481346
C  C112  1  0.15046000  0.53606000  0.62962000  1.0 -0.1025481346
N  N1  1  0.54008000  0.35418000  0.55896000  1.0 -0.0090233434
N  N2  1  0.45992000  0.64582000  0.55896000  1.0 -0.0090233434
N  N3  1  0.14582000  0.04008000  0.05896000  1.0 -0.0090233434
N  N4  1  0.85418000  0.95992000  0.05896000  1.0 -0.0090233434
N  N5  1  0.95992000  0.85418000  0.94104000  1.0 -0.0090233434
N  N6  1  0.04008000  0.14582000  0.94104000  1.0 -0.0090233434
N  N7  1  0.35418000  0.54008000  0.44104000  1.0 -0.0090233434
N  N8  1  0.64582000  0.45992000  0.44104000  1.0 -0.0090233434
N  N9  1  0.45992000  0.64582000  0.44104000  1.0 -0.0090233434
N  N10  1  0.54008000  0.35418000  0.44104000  1.0 -0.0090233434
N  N11  1  0.85418000  0.95992000  0.94104000  1.0 -0.0090233434
N  N12  1  0.14582000  0.04008000  0.94104000  1.0 -0.0090233434
N  N13  1  0.04008000  0.14582000  0.05896000  1.0 -0.0090233434
N  N14  1  0.95992000  0.85418000  0.05896000  1.0 -0.0090233434
N  N15  1  0.64582000  0.45992000  0.55896000  1.0 -0.0090233434
N  N16  1  0.35418000  0.54008000  0.55896000  1.0 -0.0090233434
N  N17  1  0.50400000  0.38932000  0.59720000  1.0 -0.0090233434
N  N18  1  0.49600000  0.61068000  0.59720000  1.0 -0.0090233434
N  N19  1  0.11068000  0.00400000  0.09720000  1.0 -0.0090233434
N  N20  1  0.88932000  0.99600000  0.09720000  1.0 -0.0090233434
N  N21  1  0.99600000  0.88932000  0.90280000  1.0 -0.0090233434
N  N22  1  0.00400000  0.11068000  0.90280000  1.0 -0.0090233434
N  N23  1  0.38932000  0.50400000  0.40280000  1.0 -0.0047623348
N  N24  1  0.61068000  0.49600000  0.40280000  1.0 -0.0047623348
N  N25  1  0.49600000  0.61068000  0.40280000  1.0 -0.0047623348
N  N26  1  0.50400000  0.38932000  0.40280000  1.0 -0.0047623348
N  N27  1  0.88932000  0.99600000  0.90280000  1.0 -0.0090233434
N  N28  1  0.11068000  0.00400000  0.90280000  1.0 -0.0090233434
N  N29  1  0.00400000  0.11068000  0.09720000  1.0 -0.0090233434
N  N30  1  0.99600000  0.88932000  0.09720000  1.0 -0.0090233434
N  N31  1  0.61068000  0.49600000  0.59720000  1.0 -0.0090233434
N  N32  1  0.38932000  0.50400000  0.59720000  1.0 -0.0090233434
N  N33  1  0.48204000  0.34305000  0.63408000  1.0 -0.247913471
N  N34  1  0.51796000  0.65695000  0.63408000  1.0 -0.247913471
N  N35  1  0.15695000  0.98204000  0.13408000  1.0 -0.247913471
N  N36  1  0.84305000  0.01796000  0.13408000  1.0 -0.247913471
N  N37  1  0.01796000  0.84305000  0.86592000  1.0 -0.247913471
N  N38  1  0.98204000  0.15695000  0.86592000  1.0 -0.247913471
N  N39  1  0.34305000  0.48204000  0.36592000  1.0 -0.247913471
N  N40  1  0.65695000  0.51796000  0.36592000  1.0 -0.247913471
N  N41  1  0.51796000  0.65695000  0.36592000  1.0 -0.247913471
N  N42  1  0.48204000  0.34305000  0.36592000  1.0 -0.247913471
N  N43  1  0.84305000  0.01796000  0.86592000  1.0 -0.247913471
N  N44  1  0.15695000  0.98204000  0.86592000  1.0 -0.247913471
N  N45  1  0.98204000  0.15695000  0.13408000  1.0 -0.247913471
N  N46  1  0.01796000  0.84305000  0.13408000  1.0 -0.247913471
N  N47  1  0.65695000  0.51796000  0.63408000  1.0 -0.247913471
N  N48  1  0.34305000  0.48204000  0.63408000  1.0 -0.247913471
N  N49  1  0.54226000  0.28425000  0.57060000  1.0 -0.247913471
N  N50  1  0.45774000  0.71575000  0.57060000  1.0 -0.247913471
N  N51  1  0.21575000  0.04226000  0.07060000  1.0 -0.247913471
N  N52  1  0.78425000  0.95774000  0.07060000  1.0 -0.247913471
N  N53  1  0.95774000  0.78425000  0.92940000  1.0 -0.247913471
N  N54  1  0.04226000  0.21575000  0.92940000  1.0 -0.247913471
N  N55  1  0.28425000  0.54226000  0.42940000  1.0 -0.247913471
N  N56  1  0.71575000  0.45774000  0.42940000  1.0 -0.247913471
N  N57  1  0.45774000  0.71575000  0.42940000  1.0 -0.247913471
N  N58  1  0.54226000  0.28425000  0.42940000  1.0 -0.247913471
N  N59  1  0.78425000  0.95774000  0.92940000  1.0 -0.247913471
N  N60  1  0.21575000  0.04226000  0.92940000  1.0 -0.247913471
N  N61  1  0.04226000  0.21575000  0.07060000  1.0 -0.247913471
N  N62  1  0.95774000  0.78425000  0.07060000  1.0 -0.247913471
N  N63  1  0.71575000  0.45774000  0.57060000  1.0 -0.247913471
N  N64  1  0.28425000  0.54226000  0.57060000  1.0 -0.247913471
Cl  Cl1  1  0.50000000  0.50000000  0.50000000  1.0 -0.5331535959
Cl  Cl2  1  0.00000000  0.00000000  0.00000000  1.0 -0.5331535959
