# DDEC6 charges by PACMAN v1.1 (https://github.com/mtap-research/PACMAN-charge/)
data_ZIPRUO_ASR_pacman
_symmetry_space_group_name_H-M   'P 1'
_cell_length_a   9.97420000
_cell_length_b   14.84420000
_cell_length_c   15.60950000
_cell_angle_alpha   99.18600000
_cell_angle_beta   90.99700000
_cell_angle_gamma   107.53100000
_symmetry_Int_Tables_number   1
_chemical_formula_structural   CoH7C14N3O4
_chemical_formula_sum   'Co4 H28 C56 N12 O16'
_cell_volume   2170.25104803
_cell_formula_units_Z   4
loop_
 _symmetry_equiv_pos_site_id
 _symmetry_equiv_pos_as_xyz
  1  'x, y, z'
loop_
 _atom_site_type_symbol
 _atom_site_label
 _atom_site_symmetry_multiplicity
 _atom_site_fract_x
 _atom_site_fract_y
 _atom_site_fract_z
 _atom_site_occupancy
 _atom_site_charge
Co  Co1  1  0.30641000  0.41178000  0.99687000  1.0 0.8632332518
Co  Co2  1  0.97502000  0.93896000  0.83873000  1.0 0.734794779
Co  Co3  1  0.69359000  0.58822000  0.00313000  1.0 0.8632332518
Co  Co4  1  0.02498000  0.06104000  0.16127000  1.0 0.7374168469
H  H1  1  0.34075000  0.30792000  0.14449000  1.0 0.1301882907
H  H2  1  0.31157000  0.56477000  0.15949000  1.0 0.1224523518
H  H3  1  0.34432000  0.32071000  0.29302000  1.0 0.1301882907
H  H4  1  0.31857000  0.58588000  0.30795000  1.0 0.1409092828
H  H5  1  0.82856000  0.40140000  0.00691000  1.0 0.1301882907
H  H6  1  0.65021000  0.07778000  0.89845000  1.0 0.1464543848
H  H7  1  0.06078000  0.75630000  0.85494000  1.0 0.1301882907
H  H8  1  0.97456000  0.85218000  0.64948000  1.0 0.1114705052
H  H9  1  0.07273000  0.61880000  0.77109000  1.0 0.1464543848
H  H10  1  0.98863000  0.71801000  0.56055000  1.0 0.1301882907
H  H11  1  0.31344000  0.50939000  0.69772000  1.0 0.1224523518
H  H12  1  0.28456000  0.23362000  0.68941000  1.0 0.1464543848
H  H13  1  0.30853000  0.52523000  0.84648000  1.0 0.1114705052
H  H14  1  0.28241000  0.25632000  0.83839000  1.0 0.1409092828
H  H15  1  0.65925000  0.69208000  0.85551000  1.0 0.1301882907
H  H16  1  0.68843000  0.43523000  0.84051000  1.0 0.1224523518
H  H17  1  0.65568000  0.67929000  0.70698000  1.0 0.1301882907
H  H18  1  0.68143000  0.41412000  0.69205000  1.0 0.1409092828
H  H19  1  0.17144000  0.59860000  0.99309000  1.0 0.1301882907
H  H20  1  0.34979000  0.92222000  0.10155000  1.0 0.1464543848
H  H21  1  0.93922000  0.24370000  0.14506000  1.0 0.1301882907
H  H22  1  0.02544000  0.14782000  0.35052000  1.0 0.1114705052
H  H23  1  0.92727000  0.38120000  0.22891000  1.0 0.1464543848
H  H24  1  0.01137000  0.28199000  0.43945000  1.0 0.1301882907
H  H25  1  0.68656000  0.49061000  0.30228000  1.0 0.1224523518
H  H26  1  0.71544000  0.76638000  0.31059000  1.0 0.1464543848
H  H27  1  0.69147000  0.47477000  0.15352000  1.0 0.1114705052
H  H28  1  0.71759000  0.74368000  0.16161000  1.0 0.1409092828
C  C1  1  0.04010000  0.33030000  0.98115000  1.0 0.5330233409
C  C2  1  0.33450000  0.36420000  0.17780000  1.0 0.0808328325
C  C3  1  0.31800000  0.51460000  0.18660000  1.0 0.0986371695
C  C4  1  0.88580000  0.28420000  0.96360000  1.0 -0.0503057593
C  C5  1  0.33790000  0.37170000  0.26720000  1.0 -0.1760617362
C  C6  1  0.32220000  0.52810000  0.27620000  1.0 -0.1890840435
C  C7  1  0.79260000  0.33620000  0.98491000  1.0 -0.1208998726
C  C8  1  0.83050000  0.18680000  0.92660000  1.0 -0.0056836693
C  C9  1  0.33180000  0.45530000  0.31820000  1.0 0.0986371695
C  C10  1  0.64820000  0.29410000  0.97450000  1.0 -0.0623876096
C  C11  1  0.68630000  0.14320000  0.91980000  1.0 -0.0925921851
C  C12  1  0.92030000  0.13080000  0.88120000  1.0 0.5630273058
C  C13  1  0.33180000  0.46930000  0.41410000  1.0 0.0092506616
C  C14  1  0.59390000  0.19580000  0.94440000  1.0 0.0092506616
C  C15  1  0.55540000  0.35760000  0.98970000  1.0 0.5675749912
C  C16  1  0.43620000  0.13790000  0.93010000  1.0 0.543783529
C  C17  1  0.30450000  0.35380000  0.58120000  1.0 0.0701639338
C  C18  1  0.04420000  0.74810000  0.79500000  1.0 0.0808328325
C  C19  1  0.99430000  0.80430000  0.67440000  1.0 0.0607716034
C  C20  1  0.29870000  0.36880000  0.67620000  1.0 0.0856368042
C  C21  1  0.05270000  0.66590000  0.74510000  1.0 -0.1890840435
C  C22  1  0.00250000  0.72390000  0.62050000  1.0 -0.1487282233
C  C23  1  0.30700000  0.45690000  0.72480000  1.0 -0.1705993505
C  C24  1  0.29020000  0.29380000  0.72020000  1.0 -0.1448242531
C  C25  1  0.03110000  0.65300000  0.65530000  1.0 0.1114705052
C  C26  1  0.30560000  0.46610000  0.81450000  1.0 0.0808328325
C  C27  1  0.28990000  0.30800000  0.81000000  1.0 0.1224523518
C  C28  1  0.03010000  0.55930000  0.60230000  1.0 -0.0348080189
C  C29  1  0.95990000  0.66970000  0.01885000  1.0 0.5330233409
C  C30  1  0.66550000  0.63580000  0.82220000  1.0 0.0808328325
C  C31  1  0.68200000  0.48540000  0.81340000  1.0 0.0986371695
C  C32  1  0.11420000  0.71580000  0.03640000  1.0 -0.0503057593
C  C33  1  0.66210000  0.62830000  0.73280000  1.0 -0.1760617362
C  C34  1  0.67780000  0.47190000  0.72380000  1.0 -0.1890840435
C  C35  1  0.20740000  0.66380000  0.01509000  1.0 -0.1208998726
C  C36  1  0.16950000  0.81320000  0.07340000  1.0 -0.0056836693
C  C37  1  0.66820000  0.54470000  0.68180000  1.0 0.0986371695
C  C38  1  0.35180000  0.70590000  0.02550000  1.0 -0.0623876096
C  C39  1  0.31370000  0.85680000  0.08020000  1.0 -0.0925921851
C  C40  1  0.07970000  0.86920000  0.11880000  1.0 0.5630273058
C  C41  1  0.66820000  0.53070000  0.58590000  1.0 0.0092506616
C  C42  1  0.40610000  0.80420000  0.05560000  1.0 0.0092506616
C  C43  1  0.44460000  0.64240000  0.01030000  1.0 0.5675749912
C  C44  1  0.56380000  0.86210000  0.06990000  1.0 0.543783529
C  C45  1  0.69550000  0.64620000  0.41880000  1.0 0.0701639338
C  C46  1  0.95580000  0.25190000  0.20500000  1.0 0.0808328325
C  C47  1  0.00570000  0.19570000  0.32560000  1.0 0.0607716034
C  C48  1  0.70130000  0.63120000  0.32380000  1.0 0.0856368042
C  C49  1  0.94730000  0.33410000  0.25490000  1.0 -0.1890840435
C  C50  1  0.99750000  0.27610000  0.37950000  1.0 -0.1487282233
C  C51  1  0.69300000  0.54310000  0.27520000  1.0 -0.1705993505
C  C52  1  0.70980000  0.70620000  0.27980000  1.0 -0.1448242531
C  C53  1  0.96890000  0.34700000  0.34470000  1.0 0.1114705052
C  C54  1  0.69440000  0.53390000  0.18550000  1.0 0.0808328325
C  C55  1  0.71010000  0.69200000  0.19000000  1.0 0.1224523518
C  C56  1  0.96990000  0.44070000  0.39770000  1.0 -0.0359637567
N  N1  1  0.32240000  0.43480000  0.13679000  1.0 -0.2285514738
N  N2  1  0.30010000  0.39370000  0.85748000  1.0 -0.2285514738
N  N3  1  0.33210000  0.40020000  0.45260000  1.0 -0.1131116205
N  N4  1  0.32800000  0.42630000  0.54370000  1.0 -0.1638392077
N  N5  1  0.01320000  0.81740000  0.76142000  1.0 -0.2285514738
N  N6  1  0.00010000  0.54590000  0.52060000  1.0 -0.1131116205
N  N7  1  0.67760000  0.56520000  0.86321000  1.0 -0.2285514738
N  N8  1  0.69990000  0.60630000  0.14252000  1.0 -0.2285514738
N  N9  1  0.66790000  0.59980000  0.54740000  1.0 -0.1131116205
N  N10  1  0.67200000  0.57370000  0.45630000  1.0 -0.1638392077
N  N11  1  0.98680000  0.18260000  0.23858000  1.0 -0.2285514738
N  N12  1  0.99990000  0.45410000  0.47940000  1.0 -0.1131116205
O  O1  1  0.11980000  0.28082000  0.99070000  1.0 -0.4990028904
O  O2  1  0.09230000  0.41978000  0.98570000  1.0 -0.52002372
O  O3  1  0.42480000  0.31935000  0.99097000  1.0 -0.4891848729
O  O4  1  0.38840000  0.55483000  0.00170000  1.0 -0.5671554969
O  O5  1  0.97550000  0.15834000  0.81627000  1.0 -0.4990028904
O  O6  1  0.92460000  0.05623000  0.91003000  1.0 -0.5304573045
O  O7  1  0.38240000  0.10690000  0.99420000  1.0 -0.4692820774
O  O8  1  0.37960000  0.12240000  0.85400000  1.0 -0.52002372
O  O9  1  0.88020000  0.71918000  0.00930000  1.0 -0.4990028904
O  O10  1  0.90770000  0.58022000  0.01430000  1.0 -0.52002372
O  O11  1  0.57520000  0.68065000  0.00903000  1.0 -0.4891848729
O  O12  1  0.61160000  0.44517000  0.99830000  1.0 -0.5671554969
O  O13  1  0.02450000  0.84166000  0.18373000  1.0 -0.4990028904
O  O14  1  0.07540000  0.94377000  0.08997000  1.0 -0.5304573045
O  O15  1  0.61760000  0.89310000  0.00580000  1.0 -0.4692820774
O  O16  1  0.62040000  0.87760000  0.14600000  1.0 -0.52002372
