# DDEC6 charges by PACMAN v1.1 (https://github.com/mtap-research/PACMAN-charge/)
data_ZIQQAU_ASR_pacman
_symmetry_space_group_name_H-M   'P 1'
_cell_length_a   29.70960000
_cell_length_b   29.70960000
_cell_length_c   29.70960000
_cell_angle_alpha   90.67740000
_cell_angle_beta   90.67740000
_cell_angle_gamma   167.51500000
_symmetry_Int_Tables_number   1
_chemical_formula_structural   Na2SiH14(C4O)4
_chemical_formula_sum   'Na16 Si8 H112 C128 O32'
_cell_volume   5635.49009431
_cell_formula_units_Z   8
loop_
 _symmetry_equiv_pos_site_id
 _symmetry_equiv_pos_as_xyz
  1  'x, y, z'
loop_
 _atom_site_type_symbol
 _atom_site_label
 _atom_site_symmetry_multiplicity
 _atom_site_fract_x
 _atom_site_fract_y
 _atom_site_fract_z
 _atom_site_occupancy
 _atom_site_charge
Na  Na1  1  0.73487000  0.42551000  0.24836000  1.0 0.8541119894
Na  Na2  1  0.99684000  0.29207000  0.27373000  1.0 0.8603274425
Na  Na3  1  0.17715000  0.48651000  0.75164000  1.0 0.8541119894
Na  Na4  1  0.01834000  0.72311000  0.72627000  1.0 0.8603274425
Na  Na5  1  0.73651000  0.48487000  0.80936000  1.0 0.8541119894
Na  Na6  1  0.97311000  0.74684000  0.20477000  1.0 0.8603274425
Na  Na7  1  0.67551000  0.92715000  0.19064000  1.0 0.8541119894
Na  Na8  1  0.54207000  0.76834000  0.79523000  1.0 0.8603274425
Na  Na9  1  0.51513000  0.32449000  0.25164000  1.0 0.8541119894
Na  Na10  1  0.25316000  0.45793000  0.22627000  1.0 0.8603274425
Na  Na11  1  0.07285000  0.26349000  0.74836000  1.0 0.8541119894
Na  Na12  1  0.23166000  0.02689000  0.77373000  1.0 0.8603274425
Na  Na13  1  0.51349000  0.26513000  0.69064000  1.0 0.8541119894
Na  Na14  1  0.27689000  0.00316000  0.29523000  1.0 0.8603274425
Na  Na15  1  0.57449000  0.82285000  0.30936000  1.0 0.8541119894
Na  Na16  1  0.70793000  0.98166000  0.70477000  1.0 0.8603274425
Si  Si1  1  0.17178000  0.65343000  0.11897000  1.0 0.8696179589
Si  Si2  1  0.53446000  0.05281000  0.88103000  1.0 0.8696179589
Si  Si3  1  0.30281000  0.92178000  0.01835000  1.0 0.8696179589
Si  Si4  1  0.90343000  0.28446000  0.98165000  1.0 0.8696179589
Si  Si5  1  0.07822000  0.09657000  0.38103000  1.0 0.8696179589
Si  Si6  1  0.71554000  0.69719000  0.61897000  1.0 0.8696179589
Si  Si7  1  0.94719000  0.82822000  0.48165000  1.0 0.8696179589
Si  Si8  1  0.34657000  0.46554000  0.51835000  1.0 0.8696179589
H  H1  1  0.88120000  0.44325000  0.13463000  1.0 0.1078755678
H  H2  1  0.89981000  0.53110000  0.17147000  1.0 0.1023119305
H  H3  1  0.66925000  0.03290000  0.19675000  1.0 0.1078755678
H  H4  1  0.56217000  0.98452000  0.14543000  1.0 0.1078755678
H  H5  1  0.47481000  0.95155000  0.07982000  1.0 0.1643177619
H  H6  1  0.32709000  0.76653000  0.06064000  1.0 0.1699214852
H  H7  1  0.27106000  0.76224000  0.04534000  1.0 0.1858479953
H  H8  1  0.50836000  0.04180000  0.16190000  1.0 0.1023119305
H  H9  1  0.99363000  0.43217000  0.19208000  1.0 0.1078755678
H  H10  1  0.84446000  0.34312000  0.07442000  1.0 0.1826580925
H  H11  1  0.87711000  0.32314000  0.08731000  1.0 0.1699214852
H  H12  1  0.80632000  0.28921000  0.12389000  1.0 0.1516087981
H  H13  1  0.09838000  0.47756000  0.24288000  1.0 0.1023119305
H  H14  1  0.52676000  0.12933000  0.19913000  1.0 0.1023119305
H  H15  1  0.30862000  0.74657000  0.86537000  1.0 0.1078755678
H  H16  1  0.35963000  0.72834000  0.82853000  1.0 0.1023119305
H  H17  1  0.83615000  0.47250000  0.80325000  1.0 0.1078755678
H  H18  1  0.83909000  0.41674000  0.85457000  1.0 0.1078755678
H  H19  1  0.87173000  0.39499000  0.92018000  1.0 0.1643177619
H  H20  1  0.70589000  0.26645000  0.93936000  1.0 0.1699214852
H  H21  1  0.71690000  0.22572000  0.95466000  1.0 0.1858479953
H  H22  1  0.87990000  0.34646000  0.83810000  1.0 0.1023119305
H  H23  1  0.24009000  0.80155000  0.80792000  1.0 0.1078755678
H  H24  1  0.26870000  0.77004000  0.92558000  1.0 0.1826580925
H  H25  1  0.23583000  0.78980000  0.91269000  1.0 0.1699214852
H  H26  1  0.16532000  0.68243000  0.87611000  1.0 0.1516087981
H  H27  1  0.23468000  0.85550000  0.75712000  1.0 0.1023119305
H  H28  1  0.93020000  0.32763000  0.80087000  1.0 0.1023119305
H  H29  1  0.99657000  0.63120000  0.93795000  1.0 0.1078755678
H  H30  1  0.97834000  0.64981000  0.86871000  1.0 0.1023119305
H  H31  1  0.72250000  0.41925000  0.13635000  1.0 0.1078755678
H  H32  1  0.66674000  0.31217000  0.07765000  1.0 0.1078755678
H  H33  1  0.64499000  0.22481000  0.02326000  1.0 0.1643177619
H  H34  1  0.51645000  0.07709000  0.06056000  1.0 0.1699214852
H  H35  1  0.47572000  0.02106000  0.00882000  1.0 0.1858479953
H  H36  1  0.59646000  0.25836000  0.96656000  1.0 0.1023119305
H  H37  1  0.05155000  0.74363000  0.06146000  1.0 0.1078755678
H  H38  1  0.02004000  0.59446000  0.00134000  1.0 0.1826580925
H  H39  1  0.03980000  0.62711000  0.05397000  1.0 0.1699214852
H  H40  1  0.93243000  0.55632000  0.01711000  1.0 0.1516087981
H  H41  1  0.10550000  0.84838000  0.12082000  1.0 0.1023119305
H  H42  1  0.57763000  0.27676000  0.89743000  1.0 0.1023119305
H  H43  1  0.69325000  0.05862000  0.06205000  1.0 0.1078755678
H  H44  1  0.78110000  0.10963000  0.13129000  1.0 0.1023119305
H  H45  1  0.28290000  0.58615000  0.86365000  1.0 0.1078755678
H  H46  1  0.23452000  0.58909000  0.92235000  1.0 0.1078755678
H  H47  1  0.20155000  0.62173000  0.97674000  1.0 0.1643177619
H  H48  1  0.01653000  0.45589000  0.93944000  1.0 0.1699214852
H  H49  1  0.01224000  0.46690000  0.99118000  1.0 0.1858479953
H  H50  1  0.29180000  0.62990000  0.03344000  1.0 0.1023119305
H  H51  1  0.68217000  0.99009000  0.93854000  1.0 0.1078755678
H  H52  1  0.59312000  0.01870000  0.99866000  1.0 0.1826580925
H  H53  1  0.57314000  0.98583000  0.94603000  1.0 0.1699214852
H  H54  1  0.53921000  0.91532000  0.98289000  1.0 0.1516087981
H  H55  1  0.72756000  0.98468000  0.87918000  1.0 0.1023119305
H  H56  1  0.37933000  0.68020000  0.10257000  1.0 0.1023119305
H  H57  1  0.36880000  0.30675000  0.36537000  1.0 0.1078755678
H  H58  1  0.35019000  0.21890000  0.32853000  1.0 0.1023119305
H  H59  1  0.58075000  0.71710000  0.30325000  1.0 0.1078755678
H  H60  1  0.68783000  0.76548000  0.35457000  1.0 0.1078755678
H  H61  1  0.77519000  0.79845000  0.42018000  1.0 0.1643177619
H  H62  1  0.92291000  0.98347000  0.43936000  1.0 0.1699214852
H  H63  1  0.97894000  0.98776000  0.45466000  1.0 0.1858479953
H  H64  1  0.74164000  0.70820000  0.33810000  1.0 0.1023119305
H  H65  1  0.25637000  0.31783000  0.30792000  1.0 0.1078755678
H  H66  1  0.40554000  0.40688000  0.42558000  1.0 0.1826580925
H  H67  1  0.37289000  0.42686000  0.41269000  1.0 0.1699214852
H  H68  1  0.44368000  0.46079000  0.37611000  1.0 0.1516087981
H  H69  1  0.15162000  0.27244000  0.25712000  1.0 0.1023119305
H  H70  1  0.72324000  0.62067000  0.30087000  1.0 0.1023119305
H  H71  1  0.94138000  0.00343000  0.63463000  1.0 0.1078755678
H  H72  1  0.89037000  0.02166000  0.67147000  1.0 0.1023119305
H  H73  1  0.41385000  0.27750000  0.69675000  1.0 0.1078755678
H  H74  1  0.41091000  0.33326000  0.64543000  1.0 0.1078755678
H  H75  1  0.37827000  0.35501000  0.57982000  1.0 0.1643177619
H  H76  1  0.54411000  0.48355000  0.56064000  1.0 0.1699214852
H  H77  1  0.53310000  0.52428000  0.54534000  1.0 0.1858479953
H  H78  1  0.37010000  0.40354000  0.66190000  1.0 0.1023119305
H  H79  1  0.00991000  0.94845000  0.69208000  1.0 0.1078755678
H  H80  1  0.98130000  0.97996000  0.57442000  1.0 0.1826580925
H  H81  1  0.01417000  0.96020000  0.58731000  1.0 0.1699214852
H  H82  1  0.08468000  0.06757000  0.62389000  1.0 0.1516087981
H  H83  1  0.01532000  0.89450000  0.74288000  1.0 0.1023119305
H  H84  1  0.31980000  0.42237000  0.69913000  1.0 0.1023119305
H  H85  1  0.25343000  0.11880000  0.56205000  1.0 0.1078755678
H  H86  1  0.27166000  0.10019000  0.63129000  1.0 0.1023119305
H  H87  1  0.52750000  0.33075000  0.36365000  1.0 0.1078755678
H  H88  1  0.58326000  0.43783000  0.42235000  1.0 0.1078755678
H  H89  1  0.60501000  0.52519000  0.47674000  1.0 0.1643177619
H  H90  1  0.73355000  0.67291000  0.43944000  1.0 0.1699214852
H  H91  1  0.77428000  0.72894000  0.49118000  1.0 0.1858479953
H  H92  1  0.65354000  0.49164000  0.53344000  1.0 0.1023119305
H  H93  1  0.19845000  0.00637000  0.43854000  1.0 0.1078755678
H  H94  1  0.22996000  0.15554000  0.49866000  1.0 0.1826580925
H  H95  1  0.21020000  0.12289000  0.44603000  1.0 0.1699214852
H  H96  1  0.31757000  0.19368000  0.48289000  1.0 0.1516087981
H  H97  1  0.14450000  0.90162000  0.37918000  1.0 0.1023119305
H  H98  1  0.67237000  0.47324000  0.60257000  1.0 0.1023119305
H  H99  1  0.55675000  0.69138000  0.43795000  1.0 0.1078755678
H  H100  1  0.46890000  0.64037000  0.36871000  1.0 0.1023119305
H  H101  1  0.96710000  0.16385000  0.63635000  1.0 0.1078755678
H  H102  1  0.01548000  0.16091000  0.57765000  1.0 0.1078755678
H  H103  1  0.04845000  0.12827000  0.52326000  1.0 0.1643177619
H  H104  1  0.23347000  0.29411000  0.56056000  1.0 0.1699214852
H  H105  1  0.23776000  0.28310000  0.50882000  1.0 0.1858479953
H  H106  1  0.95820000  0.12010000  0.46656000  1.0 0.1023119305
H  H107  1  0.56783000  0.75991000  0.56146000  1.0 0.1078755678
H  H108  1  0.65688000  0.73130000  0.50134000  1.0 0.1826580925
H  H109  1  0.67686000  0.76417000  0.55397000  1.0 0.1699214852
H  H110  1  0.71079000  0.83468000  0.51711000  1.0 0.1516087981
H  H111  1  0.52244000  0.76532000  0.62082000  1.0 0.1023119305
H  H112  1  0.87067000  0.06980000  0.39743000  1.0 0.1023119305
C  C1  1  0.39327000  0.75811000  0.22418000  1.0 -0.0185222905
C  C2  1  0.19237000  0.73177000  0.14474000  1.0 -0.2239567718
C  C3  1  0.21414000  0.83792000  0.18946000  1.0 -0.0185222905
C  C4  1  0.01320000  0.58304000  0.14784000  1.0 -0.0815262176
C  C5  1  0.22193000  0.88967000  0.21620000  1.0 0.6012041172
C  C6  1  0.26456000  0.70132000  0.16268000  1.0 -0.2129735803
C  C7  1  0.02407000  0.63539000  0.16986000  1.0 -0.117417981
C  C8  1  0.45981000  0.78467000  0.25568000  1.0 0.6120850047
C  C9  1  0.53083000  0.90930000  0.19553000  1.0 -0.117417981
C  C10  1  0.46679000  0.88048000  0.16507000  1.0 -0.0815262176
C  C11  1  0.32993000  0.80092000  0.07045000  1.0 -0.7841809491
C  C12  1  0.38331000  0.93630000  0.16401000  1.0 -0.0886552731
C  C13  1  0.13067000  0.55386000  0.19253000  1.0 -0.0815262176
C  C14  1  0.89171000  0.36844000  0.09875000  1.0 -0.7885637084
C  C15  1  0.19271000  0.58045000  0.22296000  1.0 -0.1103249114
C  C16  1  0.39500000  0.98939000  0.18619000  1.0 -0.1033115783
C  C17  1  0.53393000  0.16909000  0.77582000  1.0 -0.0185222905
C  C18  1  0.58703000  0.04763000  0.85526000  1.0 -0.2239567718
C  C19  1  0.64846000  0.02468000  0.81054000  1.0 -0.0185222905
C  C20  1  0.43520000  0.86536000  0.85216000  1.0 -0.0815262176
C  C21  1  0.67347000  0.00573000  0.78380000  1.0 0.6012041172
C  C22  1  0.53864000  0.10188000  0.83732000  1.0 -0.2129735803
C  C23  1  0.46553000  0.85421000  0.83014000  1.0 -0.117417981
C  C24  1  0.52899000  0.20413000  0.74432000  1.0 0.6120850047
C  C25  1  0.71377000  0.33530000  0.80447000  1.0 -0.117417981
C  C26  1  0.71541000  0.30172000  0.83493000  1.0 -0.0815262176
C  C27  1  0.73047000  0.25948000  0.92955000  1.0 -0.7841809491
C  C28  1  0.77229000  0.21930000  0.83599000  1.0 -0.0886552731
C  C29  1  0.36133000  0.93814000  0.80747000  1.0 -0.0815262176
C  C30  1  0.26969000  0.79296000  0.90125000  1.0 -0.7885637084
C  C31  1  0.35749000  0.96975000  0.77704000  1.0 -0.1103249114
C  C32  1  0.80320000  0.20881000  0.81381000  1.0 -0.1033115783
C  C33  1  0.41909000  0.14327000  0.13516000  1.0 -0.0185222905
C  C34  1  0.29763000  0.94237000  0.96060000  1.0 -0.2239567718
C  C35  1  0.27468000  0.96414000  0.87622000  1.0 -0.0185222905
C  C36  1  0.11536000  0.76320000  0.93016000  1.0 -0.0815262176
C  C37  1  0.25573000  0.97193000  0.83226000  1.0 0.6012041172
C  C38  1  0.35188000  0.01456000  0.06324000  1.0 -0.2129735803
C  C39  1  0.10421000  0.77407000  0.88868000  1.0 -0.117417981
C  C40  1  0.45413000  0.20981000  0.17514000  1.0 0.6120850047
C  C41  1  0.58530000  0.28083000  0.12153000  1.0 -0.117417981
C  C42  1  0.55172000  0.21679000  0.08631000  1.0 -0.0815262176
C  C43  1  0.50948000  0.07993000  0.02901000  1.0 -0.7841809491
C  C44  1  0.46930000  0.13331000  0.94701000  1.0 -0.0886552731
C  C45  1  0.18814000  0.88067000  0.07681000  1.0 -0.0815262176
C  C46  1  0.04296000  0.64171000  0.02327000  1.0 -0.7885637084
C  C47  1  0.21975000  0.94271000  0.11226000  1.0 -0.1103249114
C  C48  1  0.45881000  0.14500000  0.90561000  1.0 -0.1033115783
C  C49  1  0.00811000  0.28393000  0.86484000  1.0 -0.0185222905
C  C50  1  0.98177000  0.33703000  0.03940000  1.0 -0.2239567718
C  C51  1  0.08792000  0.39846000  0.12378000  1.0 -0.0185222905
C  C52  1  0.83304000  0.18520000  0.06984000  1.0 -0.0815262176
C  C53  1  0.13967000  0.42347000  0.16774000  1.0 0.6012041172
C  C54  1  0.95132000  0.28864000  0.93676000  1.0 -0.2129735803
C  C55  1  0.88539000  0.21553000  0.11132000  1.0 -0.117417981
C  C56  1  0.03467000  0.27899000  0.82486000  1.0 0.6120850047
C  C57  1  0.15930000  0.46377000  0.87847000  1.0 -0.117417981
C  C58  1  0.13048000  0.46541000  0.91369000  1.0 -0.0815262176
C  C59  1  0.05092000  0.48047000  0.97099000  1.0 -0.7841809491
C  C60  1  0.18630000  0.52229000  0.05299000  1.0 -0.0886552731
C  C61  1  0.80386000  0.11133000  0.92319000  1.0 -0.0815262176
C  C62  1  0.61844000  0.01969000  0.97673000  1.0 -0.7885637084
C  C63  1  0.83045000  0.10749000  0.88774000  1.0 -0.1103249114
C  C64  1  0.23939000  0.55320000  0.09439000  1.0 -0.1033115783
C  C65  1  0.85673000  0.99189000  0.27582000  1.0 -0.0185222905
C  C66  1  0.05763000  0.01823000  0.35526000  1.0 -0.2239567718
C  C67  1  0.03586000  0.91208000  0.31054000  1.0 -0.0185222905
C  C68  1  0.23680000  0.16696000  0.35216000  1.0 -0.0815262176
C  C69  1  0.02807000  0.86033000  0.28380000  1.0 0.6012041172
C  C70  1  0.98544000  0.04868000  0.33732000  1.0 -0.2129735803
C  C71  1  0.22593000  0.11461000  0.33014000  1.0 -0.117417981
C  C72  1  0.79019000  0.96533000  0.24432000  1.0 0.6120850047
C  C73  1  0.71917000  0.84070000  0.30447000  1.0 -0.117417981
C  C74  1  0.78321000  0.86952000  0.33493000  1.0 -0.0815262176
C  C75  1  0.92007000  0.94908000  0.42955000  1.0 -0.7841809491
C  C76  1  0.86669000  0.81370000  0.33599000  1.0 -0.0886552731
C  C77  1  0.11933000  0.19614000  0.30747000  1.0 -0.0815262176
C  C78  1  0.35829000  0.38156000  0.40125000  1.0 -0.7885637084
C  C79  1  0.05729000  0.16955000  0.27704000  1.0 -0.1103249114
C  C80  1  0.85500000  0.76061000  0.31381000  1.0 -0.1033115783
C  C81  1  0.71607000  0.58091000  0.72418000  1.0 -0.0185222905
C  C82  1  0.66297000  0.70237000  0.64474000  1.0 -0.2239567718
C  C83  1  0.60154000  0.72532000  0.68946000  1.0 -0.0185222905
C  C84  1  0.81480000  0.88464000  0.64784000  1.0 -0.0815262176
C  C85  1  0.57653000  0.74427000  0.71620000  1.0 0.6012041172
C  C86  1  0.71136000  0.64812000  0.66268000  1.0 -0.2129735803
C  C87  1  0.78447000  0.89579000  0.66986000  1.0 -0.117417981
C  C88  1  0.72101000  0.54587000  0.75568000  1.0 0.6120850047
C  C89  1  0.53623000  0.41470000  0.69553000  1.0 -0.117417981
C  C90  1  0.53459000  0.44828000  0.66507000  1.0 -0.0815262176
C  C91  1  0.51953000  0.49052000  0.57045000  1.0 -0.7841809491
C  C92  1  0.47771000  0.53070000  0.66401000  1.0 -0.0886552731
C  C93  1  0.88867000  0.81186000  0.69253000  1.0 -0.0815262176
C  C94  1  0.98031000  0.95704000  0.59875000  1.0 -0.7885637084
C  C95  1  0.89251000  0.78025000  0.72296000  1.0 -0.1103249114
C  C96  1  0.44680000  0.54119000  0.68619000  1.0 -0.1033115783
C  C97  1  0.83091000  0.60673000  0.36484000  1.0 -0.0185222905
C  C98  1  0.95237000  0.80763000  0.53940000  1.0 -0.2239567718
C  C99  1  0.97532000  0.78586000  0.62378000  1.0 -0.0185222905
C  C100  1  0.13464000  0.98680000  0.56984000  1.0 -0.0815262176
C  C101  1  0.99427000  0.77807000  0.66774000  1.0 0.6012041172
C  C102  1  0.89812000  0.73544000  0.43676000  1.0 -0.2129735803
C  C103  1  0.14579000  0.97593000  0.61132000  1.0 -0.117417981
C  C104  1  0.79587000  0.54019000  0.32486000  1.0 0.6120850047
C  C105  1  0.66470000  0.46917000  0.37847000  1.0 -0.117417981
C  C106  1  0.69828000  0.53321000  0.41369000  1.0 -0.0815262176
C  C107  1  0.74052000  0.67007000  0.47099000  1.0 -0.7841809491
C  C108  1  0.78070000  0.61669000  0.55299000  1.0 -0.0886552731
C  C109  1  0.06186000  0.86933000  0.42319000  1.0 -0.0815262176
C  C110  1  0.20704000  0.10829000  0.47673000  1.0 -0.7885637084
C  C111  1  0.03025000  0.80729000  0.38774000  1.0 -0.1103249114
C  C112  1  0.79119000  0.60500000  0.59439000  1.0 -0.1033115783
C  C113  1  0.24189000  0.46607000  0.63516000  1.0 -0.0185222905
C  C114  1  0.26823000  0.41297000  0.46060000  1.0 -0.2239567718
C  C115  1  0.16208000  0.35154000  0.37622000  1.0 -0.0185222905
C  C116  1  0.41696000  0.56480000  0.43016000  1.0 -0.0815262176
C  C117  1  0.11033000  0.32653000  0.33226000  1.0 0.6012041172
C  C118  1  0.29868000  0.46136000  0.56324000  1.0 -0.2129735803
C  C119  1  0.36461000  0.53447000  0.38868000  1.0 -0.117417981
C  C120  1  0.21533000  0.47101000  0.67514000  1.0 0.6120850047
C  C121  1  0.09070000  0.28623000  0.62153000  1.0 -0.117417981
C  C122  1  0.11952000  0.28459000  0.58631000  1.0 -0.0815262176
C  C123  1  0.19908000  0.26953000  0.52901000  1.0 -0.7841809491
C  C124  1  0.06370000  0.22771000  0.44701000  1.0 -0.0886552731
C  C125  1  0.44614000  0.63867000  0.57681000  1.0 -0.0815262176
C  C126  1  0.63156000  0.73031000  0.52327000  1.0 -0.7885637084
C  C127  1  0.41955000  0.64251000  0.61226000  1.0 -0.1103249114
C  C128  1  0.01061000  0.19680000  0.40561000  1.0 -0.1033115783
O  O1  1  0.63918000  0.94324000  0.25340000  1.0 -0.7329765135
O  O2  1  0.39320000  0.06795000  0.23781000  1.0 -0.6956423769
O  O3  1  0.05409000  0.74784000  0.21615000  1.0 -0.7187992731
O  O4  1  0.33411000  0.64899000  0.28234000  1.0 -0.6865279922
O  O5  1  0.68984000  0.38578000  0.74660000  1.0 -0.7329765135
O  O6  1  0.83014000  0.15539000  0.76219000  1.0 -0.6956423769
O  O7  1  0.53169000  0.83794000  0.78385000  1.0 -0.7187992731
O  O8  1  0.36665000  0.05177000  0.71766000  1.0 -0.6865279922
O  O9  1  0.63578000  0.38918000  0.19594000  1.0 -0.7329765135
O  O10  1  0.40539000  0.14320000  0.82525000  1.0 -0.6956423769
O  O11  1  0.08794000  0.80409000  0.80625000  1.0 -0.7187992731
O  O12  1  0.30177000  0.08411000  0.18512000  1.0 -0.6865279922
O  O13  1  0.19324000  0.43984000  0.80406000  1.0 -0.7329765135
O  O14  1  0.31795000  0.58014000  0.17475000  1.0 -0.6956423769
O  O15  1  0.99784000  0.28169000  0.19375000  1.0 -0.7187992731
O  O16  1  0.89899000  0.11665000  0.81488000  1.0 -0.6865279922
O  O17  1  0.61082000  0.80676000  0.24660000  1.0 -0.7329765135
O  O18  1  0.85680000  0.68205000  0.26219000  1.0 -0.6956423769
O  O19  1  0.19591000  0.00216000  0.28385000  1.0 -0.7187992731
O  O20  1  0.91589000  0.10101000  0.21766000  1.0 -0.6865279922
O  O21  1  0.56016000  0.36422000  0.75340000  1.0 -0.7329765135
O  O22  1  0.41986000  0.59461000  0.73781000  1.0 -0.6956423769
O  O23  1  0.71831000  0.91206000  0.71615000  1.0 -0.7187992731
O  O24  1  0.88335000  0.69823000  0.78234000  1.0 -0.6865279922
O  O25  1  0.61422000  0.36082000  0.30406000  1.0 -0.7329765135
O  O26  1  0.84461000  0.60680000  0.67475000  1.0 -0.6956423769
O  O27  1  0.16206000  0.94591000  0.69375000  1.0 -0.7187992731
O  O28  1  0.94823000  0.66589000  0.31488000  1.0 -0.6865279922
O  O29  1  0.05676000  0.31016000  0.69594000  1.0 -0.7329765135
O  O30  1  0.93205000  0.16986000  0.32525000  1.0 -0.6956423769
O  O31  1  0.25216000  0.46831000  0.30625000  1.0 -0.7187992731
O  O32  1  0.35101000  0.63335000  0.68512000  1.0 -0.6865279922
