# DDEC6 charges by PACMAN v1.1 (https://github.com/mtap-research/PACMAN-charge/)
data_ZIQVAY_ASR_pacman
_symmetry_space_group_name_H-M   'P 1'
_cell_length_a   16.27950000
_cell_length_b   16.27950000
_cell_length_c   16.27950000
_cell_angle_alpha   109.47100000
_cell_angle_beta   109.47100000
_cell_angle_gamma   109.47100000
_symmetry_Int_Tables_number   1
_chemical_formula_structural   Cd3H4C12N4O9
_chemical_formula_sum   'Cd18 H24 C72 N24 O54'
_cell_volume   3321.27505036
_cell_formula_units_Z   6
loop_
 _symmetry_equiv_pos_site_id
 _symmetry_equiv_pos_as_xyz
  1  'x, y, z'
loop_
 _atom_site_type_symbol
 _atom_site_label
 _atom_site_symmetry_multiplicity
 _atom_site_fract_x
 _atom_site_fract_y
 _atom_site_fract_z
 _atom_site_occupancy
 _atom_site_charge
Cd  Cd1  1  0.25000000  0.50000000  0.75000000  1.0 0.8358090401
Cd  Cd2  1  0.75000000  0.50000000  0.25000000  1.0 0.8358090401
Cd  Cd3  1  0.50000000  0.75000000  0.25000000  1.0 0.8358090401
Cd  Cd4  1  0.50000000  0.25000000  0.75000000  1.0 0.8358090401
Cd  Cd5  1  0.75000000  0.25000000  0.50000000  1.0 0.8358090401
Cd  Cd6  1  0.25000000  0.75000000  0.50000000  1.0 0.8358090401
Cd  Cd7  1  0.00000000  0.68858000  0.68858000  1.0 0.7878993134
Cd  Cd8  1  0.00000000  0.31142000  0.31142000  1.0 0.7878993134
Cd  Cd9  1  0.68858000  0.00000000  0.68858000  1.0 0.7878993134
Cd  Cd10  1  0.31142000  0.00000000  0.31142000  1.0 0.7878993134
Cd  Cd11  1  0.68858000  0.68858000  0.00000000  1.0 0.7878993134
Cd  Cd12  1  0.31142000  0.31142000  0.00000000  1.0 0.7842098455
Cd  Cd13  1  0.00000000  0.64690000  0.64690000  1.0 0.6910964589
Cd  Cd14  1  0.00000000  0.35310000  0.35310000  1.0 0.6960564832
Cd  Cd15  1  0.64690000  0.00000000  0.64690000  1.0 0.6910964589
Cd  Cd16  1  0.35310000  0.00000000  0.35310000  1.0 0.6910964589
Cd  Cd17  1  0.64690000  0.64690000  0.00000000  1.0 0.6910964589
Cd  Cd18  1  0.35310000  0.35310000  0.00000000  1.0 0.6910964589
H  H1  1  0.39010000  0.60990000  0.00000000  1.0 0.116346936
H  H2  1  0.60990000  0.60990000  0.21980000  1.0 0.116346936
H  H3  1  0.60990000  0.39010000  0.00000000  1.0 0.116346936
H  H4  1  0.39010000  0.39010000  0.78020000  1.0 0.116346936
H  H5  1  0.60990000  0.00000000  0.39010000  1.0 0.116346936
H  H6  1  0.60990000  0.21980000  0.60990000  1.0 0.116346936
H  H7  1  0.39010000  0.78020000  0.39010000  1.0 0.116346936
H  H8  1  0.39010000  0.00000000  0.60990000  1.0 0.116346936
H  H9  1  0.00000000  0.60990000  0.39010000  1.0 0.116346936
H  H10  1  0.00000000  0.39010000  0.60990000  1.0 0.116346936
H  H11  1  0.21980000  0.60990000  0.60990000  1.0 0.116346936
H  H12  1  0.78020000  0.39010000  0.39010000  1.0 0.116346936
H  H13  1  0.22140000  0.77860000  0.00000000  1.0 0.1586710766
H  H14  1  0.77860000  0.77860000  0.55720000  1.0 0.1586710766
H  H15  1  0.77860000  0.22140000  0.00000000  1.0 0.1586710766
H  H16  1  0.22140000  0.22140000  0.44280000  1.0 0.1586710766
H  H17  1  0.77860000  0.00000000  0.22140000  1.0 0.1586710766
H  H18  1  0.77860000  0.55720000  0.77860000  1.0 0.1586710766
H  H19  1  0.22140000  0.44280000  0.22140000  1.0 0.1586710766
H  H20  1  0.22140000  0.00000000  0.77860000  1.0 0.1586710766
H  H21  1  0.00000000  0.77860000  0.22140000  1.0 0.1586710766
H  H22  1  0.00000000  0.22140000  0.77860000  1.0 0.1586710766
H  H23  1  0.55720000  0.77860000  0.77860000  1.0 0.1586710766
H  H24  1  0.44280000  0.22140000  0.22140000  1.0 0.1586710766
C  C1  1  0.35510000  0.64490000  0.00000000  1.0 0.2461951952
C  C2  1  0.64490000  0.64490000  0.28980000  1.0 0.2461951952
C  C3  1  0.64490000  0.35510000  0.00000000  1.0 0.2461951952
C  C4  1  0.35510000  0.35510000  0.71020000  1.0 0.2461951952
C  C5  1  0.64490000  0.00000000  0.35510000  1.0 0.2461951952
C  C6  1  0.64490000  0.28980000  0.64490000  1.0 0.2461951952
C  C7  1  0.35510000  0.71020000  0.35510000  1.0 0.2461951952
C  C8  1  0.35510000  0.00000000  0.64490000  1.0 0.2461951952
C  C9  1  0.00000000  0.64490000  0.35510000  1.0 0.2461951952
C  C10  1  0.00000000  0.35510000  0.64490000  1.0 0.2461951952
C  C11  1  0.28980000  0.64490000  0.64490000  1.0 0.2461951952
C  C12  1  0.71020000  0.35510000  0.35510000  1.0 0.2461951952
C  C13  1  0.23830000  0.67250000  0.91080000  1.0 0.1512909612
C  C14  1  0.76170000  0.67250000  0.43420000  1.0 0.1512909612
C  C15  1  0.76170000  0.32750000  0.08920000  1.0 0.1512909612
C  C16  1  0.23830000  0.32750000  0.56580000  1.0 0.1512909612
C  C17  1  0.67250000  0.76170000  0.43420000  1.0 0.1512909612
C  C18  1  0.67250000  0.23830000  0.91080000  1.0 0.1512909612
C  C19  1  0.32750000  0.23830000  0.56580000  1.0 0.1512909612
C  C20  1  0.32750000  0.76170000  0.08920000  1.0 0.1512909612
C  C21  1  0.67250000  0.91080000  0.23830000  1.0 0.1512909612
C  C22  1  0.67250000  0.43420000  0.76170000  1.0 0.1512909612
C  C23  1  0.32750000  0.56580000  0.23830000  1.0 0.1512909612
C  C24  1  0.32750000  0.08920000  0.76170000  1.0 0.1512909612
C  C25  1  0.91080000  0.67250000  0.23830000  1.0 0.1512909612
C  C26  1  0.08920000  0.32750000  0.76170000  1.0 0.1512909612
C  C27  1  0.43420000  0.67250000  0.76170000  1.0 0.1512909612
C  C28  1  0.56580000  0.32750000  0.23830000  1.0 0.1512909612
C  C29  1  0.91080000  0.23830000  0.67250000  1.0 0.1512909612
C  C30  1  0.43420000  0.76170000  0.67250000  1.0 0.1512909612
C  C31  1  0.56580000  0.23830000  0.32750000  1.0 0.1512909612
C  C32  1  0.08920000  0.76170000  0.32750000  1.0 0.1512909612
C  C33  1  0.76170000  0.08920000  0.32750000  1.0 0.1512909612
C  C34  1  0.23830000  0.56580000  0.32750000  1.0 0.1512909612
C  C35  1  0.23830000  0.91080000  0.67250000  1.0 0.1512909612
C  C36  1  0.76170000  0.43420000  0.67250000  1.0 0.1512909612
C  C37  1  0.25640000  0.74360000  0.00000000  1.0 -0.208830551
C  C38  1  0.74360000  0.74360000  0.48720000  1.0 -0.208830551
C  C39  1  0.74360000  0.25640000  0.00000000  1.0 -0.208830551
C  C40  1  0.25640000  0.25640000  0.51280000  1.0 -0.208830551
C  C41  1  0.74360000  0.00000000  0.25640000  1.0 -0.208830551
C  C42  1  0.74360000  0.48720000  0.74360000  1.0 -0.208830551
C  C43  1  0.25640000  0.51280000  0.25640000  1.0 -0.208830551
C  C44  1  0.25640000  0.00000000  0.74360000  1.0 -0.208830551
C  C45  1  0.00000000  0.74360000  0.25640000  1.0 -0.208830551
C  C46  1  0.00000000  0.25640000  0.74360000  1.0 -0.208830551
C  C47  1  0.48720000  0.74360000  0.74360000  1.0 -0.208830551
C  C48  1  0.51280000  0.25640000  0.25640000  1.0 -0.208830551
C  C49  1  0.16170000  0.64730000  0.80900000  1.0 0.5269434035
C  C50  1  0.83830000  0.64730000  0.48560000  1.0 0.5269434035
C  C51  1  0.83830000  0.35270000  0.19100000  1.0 0.5269434035
C  C52  1  0.16170000  0.35270000  0.51440000  1.0 0.5269434035
C  C53  1  0.64730000  0.83830000  0.48560000  1.0 0.5269434035
C  C54  1  0.64730000  0.16170000  0.80900000  1.0 0.5269434035
C  C55  1  0.35270000  0.16170000  0.51440000  1.0 0.5269434035
C  C56  1  0.35270000  0.83830000  0.19100000  1.0 0.5269434035
C  C57  1  0.64730000  0.80900000  0.16170000  1.0 0.5269434035
C  C58  1  0.64730000  0.48560000  0.83830000  1.0 0.5269434035
C  C59  1  0.35270000  0.51440000  0.16170000  1.0 0.5269434035
C  C60  1  0.35270000  0.19100000  0.83830000  1.0 0.5269434035
C  C61  1  0.80900000  0.64730000  0.16170000  1.0 0.5269434035
C  C62  1  0.19100000  0.35270000  0.83830000  1.0 0.5269434035
C  C63  1  0.48560000  0.64730000  0.83830000  1.0 0.5269434035
C  C64  1  0.51440000  0.35270000  0.16170000  1.0 0.5269434035
C  C65  1  0.80900000  0.16170000  0.64730000  1.0 0.5269434035
C  C66  1  0.48560000  0.83830000  0.64730000  1.0 0.5269434035
C  C67  1  0.51440000  0.16170000  0.35270000  1.0 0.5269434035
C  C68  1  0.19100000  0.83830000  0.35270000  1.0 0.5269434035
C  C69  1  0.83830000  0.19100000  0.35270000  1.0 0.5269434035
C  C70  1  0.16170000  0.51440000  0.35270000  1.0 0.5269434035
C  C71  1  0.16170000  0.80900000  0.64730000  1.0 0.5269434035
C  C72  1  0.83830000  0.48560000  0.64730000  1.0 0.5269434035
N  N1  1  0.28790000  0.62270000  0.91060000  1.0 -0.2896836109
N  N2  1  0.71210000  0.62270000  0.33480000  1.0 -0.2896836109
N  N3  1  0.71210000  0.37730000  0.08940000  1.0 -0.2896836109
N  N4  1  0.28790000  0.37730000  0.66520000  1.0 -0.2896836109
N  N5  1  0.62270000  0.71210000  0.33480000  1.0 -0.2896836109
N  N6  1  0.62270000  0.28790000  0.91060000  1.0 -0.2896836109
N  N7  1  0.37730000  0.28790000  0.66520000  1.0 -0.2896836109
N  N8  1  0.37730000  0.71210000  0.08940000  1.0 -0.2896836109
N  N9  1  0.62270000  0.91060000  0.28790000  1.0 -0.2896836109
N  N10  1  0.62270000  0.33480000  0.71210000  1.0 -0.2896836109
N  N11  1  0.37730000  0.66520000  0.28790000  1.0 -0.2896836109
N  N12  1  0.37730000  0.08940000  0.71210000  1.0 -0.2896836109
N  N13  1  0.91060000  0.62270000  0.28790000  1.0 -0.2896836109
N  N14  1  0.08940000  0.37730000  0.71210000  1.0 -0.2896836109
N  N15  1  0.33480000  0.62270000  0.71210000  1.0 -0.2896836109
N  N16  1  0.66520000  0.37730000  0.28790000  1.0 -0.2896836109
N  N17  1  0.91060000  0.28790000  0.62270000  1.0 -0.2896836109
N  N18  1  0.33480000  0.71210000  0.62270000  1.0 -0.2896836109
N  N19  1  0.66520000  0.28790000  0.37730000  1.0 -0.2896836109
N  N20  1  0.08940000  0.71210000  0.37730000  1.0 -0.2896836109
N  N21  1  0.71210000  0.08940000  0.37730000  1.0 -0.2896836109
N  N22  1  0.28790000  0.66520000  0.37730000  1.0 -0.2896836109
N  N23  1  0.28790000  0.91060000  0.62270000  1.0 -0.2896836109
N  N24  1  0.71210000  0.33480000  0.62270000  1.0 -0.2896836109
O  O1  1  0.00000000  0.56860000  0.56860000  1.0 -0.4993316556
O  O2  1  0.00000000  0.43140000  0.43140000  1.0 -0.4993316556
O  O3  1  0.56860000  0.00000000  0.56860000  1.0 -0.4993316556
O  O4  1  0.43140000  0.00000000  0.43140000  1.0 -0.4993316556
O  O5  1  0.56860000  0.56860000  0.00000000  1.0 -0.4993316556
O  O6  1  0.43140000  0.43140000  0.00000000  1.0 -0.4993316556
O  O7  1  0.15020000  0.58230000  0.73250000  1.0 -0.4993316556
O  O8  1  0.84980000  0.58230000  0.43210000  1.0 -0.4993316556
O  O9  1  0.84980000  0.41770000  0.26750000  1.0 -0.4993316556
O  O10  1  0.15020000  0.41770000  0.56790000  1.0 -0.4993316556
O  O11  1  0.58230000  0.84980000  0.43210000  1.0 -0.4993316556
O  O12  1  0.58230000  0.15020000  0.73250000  1.0 -0.4993316556
O  O13  1  0.41770000  0.15020000  0.56790000  1.0 -0.4993316556
O  O14  1  0.41770000  0.84980000  0.26750000  1.0 -0.4993316556
O  O15  1  0.58230000  0.73250000  0.15020000  1.0 -0.4993316556
O  O16  1  0.58230000  0.43210000  0.84980000  1.0 -0.4993316556
O  O17  1  0.41770000  0.56790000  0.15020000  1.0 -0.4993316556
O  O18  1  0.41770000  0.26750000  0.84980000  1.0 -0.4993316556
O  O19  1  0.73250000  0.58230000  0.15020000  1.0 -0.4993316556
O  O20  1  0.26750000  0.41770000  0.84980000  1.0 -0.4993316556
O  O21  1  0.43210000  0.58230000  0.84980000  1.0 -0.4993316556
O  O22  1  0.56790000  0.41770000  0.15020000  1.0 -0.4993316556
O  O23  1  0.73250000  0.15020000  0.58230000  1.0 -0.4993316556
O  O24  1  0.43210000  0.84980000  0.58230000  1.0 -0.4993316556
O  O25  1  0.56790000  0.15020000  0.41770000  1.0 -0.4993316556
O  O26  1  0.26750000  0.84980000  0.41770000  1.0 -0.4993316556
O  O27  1  0.84980000  0.26750000  0.41770000  1.0 -0.4993316556
O  O28  1  0.15020000  0.56790000  0.41770000  1.0 -0.4993316556
O  O29  1  0.15020000  0.73250000  0.58230000  1.0 -0.4993316556
O  O30  1  0.84980000  0.43210000  0.58230000  1.0 -0.4993316556
O  O31  1  0.11680000  0.69610000  0.81290000  1.0 -0.4993316556
O  O32  1  0.88320000  0.69610000  0.57930000  1.0 -0.4993316556
O  O33  1  0.88320000  0.30390000  0.18710000  1.0 -0.4993316556
O  O34  1  0.11680000  0.30390000  0.42070000  1.0 -0.4993316556
O  O35  1  0.69610000  0.88320000  0.57930000  1.0 -0.4993316556
O  O36  1  0.69610000  0.11680000  0.81290000  1.0 -0.4993316556
O  O37  1  0.30390000  0.11680000  0.42070000  1.0 -0.4993316556
O  O38  1  0.30390000  0.88320000  0.18710000  1.0 -0.4993316556
O  O39  1  0.69610000  0.81290000  0.11680000  1.0 -0.4993316556
O  O40  1  0.69610000  0.57930000  0.88320000  1.0 -0.4993316556
O  O41  1  0.30390000  0.42070000  0.11680000  1.0 -0.4993316556
O  O42  1  0.30390000  0.18710000  0.88320000  1.0 -0.4993316556
O  O43  1  0.81290000  0.69610000  0.11680000  1.0 -0.4993316556
O  O44  1  0.18710000  0.30390000  0.88320000  1.0 -0.4993316556
O  O45  1  0.57930000  0.69610000  0.88320000  1.0 -0.4993316556
O  O46  1  0.42070000  0.30390000  0.11680000  1.0 -0.4993316556
O  O47  1  0.81290000  0.11680000  0.69610000  1.0 -0.4993316556
O  O48  1  0.57930000  0.88320000  0.69610000  1.0 -0.4993316556
O  O49  1  0.42070000  0.11680000  0.30390000  1.0 -0.4993316556
O  O50  1  0.18710000  0.88320000  0.30390000  1.0 -0.4993316556
O  O51  1  0.88320000  0.18710000  0.30390000  1.0 -0.4993316556
O  O52  1  0.11680000  0.42070000  0.30390000  1.0 -0.4993316556
O  O53  1  0.11680000  0.81290000  0.69610000  1.0 -0.4993316556
O  O54  1  0.88320000  0.57930000  0.69610000  1.0 -0.4993316556
