# DDEC6 charges by PACMAN v1.1 (https://github.com/mtap-research/PACMAN-charge/)
data_ZIQWOO_ASR_pacman
_symmetry_space_group_name_H-M   'P 1'
_cell_length_a   27.35450000
_cell_length_b   27.35450000
_cell_length_c   27.35450000
_cell_angle_alpha   150.28200000
_cell_angle_beta   145.38900000
_cell_angle_gamma   46.25040000
_symmetry_Int_Tables_number   1
_chemical_formula_structural   Sr4H38C64N8O31
_chemical_formula_sum   'Sr8 H76 C128 N16 O62'
_cell_volume   5743.73334077
_cell_formula_units_Z   2
loop_
 _symmetry_equiv_pos_site_id
 _symmetry_equiv_pos_as_xyz
  1  'x, y, z'
loop_
 _atom_site_type_symbol
 _atom_site_label
 _atom_site_symmetry_multiplicity
 _atom_site_fract_x
 _atom_site_fract_y
 _atom_site_fract_z
 _atom_site_occupancy
 _atom_site_charge
Sr  Sr1  1  0.67384000  0.03613000  0.88931000  1.0 1.4407208762
Sr  Sr2  1  0.55958000  0.24543000  0.05455000  1.0 1.4345987044
Sr  Sr3  1  0.32616000  0.21547000  0.36229000  1.0 1.4407208762
Sr  Sr4  1  0.44042000  0.49497000  0.68585000  1.0 1.4407208762
Sr  Sr5  1  0.64682000  0.53613000  0.36229000  1.0 1.4407208762
Sr  Sr6  1  0.69088000  0.74543000  0.68585000  1.0 1.4407208762
Sr  Sr7  1  0.35318000  0.71547000  0.88931000  1.0 1.4407208762
Sr  Sr8  1  0.30912000  0.99497000  0.05455000  1.0 1.4345987044
H  H1  1  0.58330000  0.07869000  0.03617000  1.0 0.0816648486
H  H2  1  0.55255000  0.02341000  0.03226000  1.0 0.0906925784
H  H3  1  0.56027000  0.80065000  0.72620000  1.0 0.0816648486
H  H4  1  0.40687000  0.96341000  0.51742000  1.0 0.1321337721
H  H5  1  0.19263000  0.13131000  0.54920000  1.0 0.1202930624
H  H6  1  0.33013000  0.15274000  0.71359000  1.0 0.1321337721
H  H7  1  0.11440000  0.85449000  0.18889000  1.0 0.1086055067
H  H8  1  0.97178000  0.82148000  0.02230000  1.0 0.1202930624
H  H9  1  0.95964000  0.11113000  0.23823000  1.0 0.1086055067
H  H10  1  0.09878000  0.14132000  0.40888000  1.0 0.1086055067
H  H11  1  0.85537000  0.19828000  0.17953000  1.0 0.1202930624
H  H12  1  0.97950000  0.23622000  0.26808000  1.0 0.1321337721
H  H13  1  0.78196000  0.46774000  0.32684000  1.0 0.1202930624
H  H14  1  0.45815000  0.00391000  0.92190000  1.0 0.0906925784
H  H15  1  0.60327000  0.77219000  0.83514000  1.0 0.1871278859
H  H16  1  0.64816000  0.81748000  0.83310000  1.0 0.0906925784
H  H17  1  0.50304000  0.04920000  0.91986000  1.0 0.0906925784
H  H18  1  0.91831000  0.50948000  0.44219000  1.0 0.2092458061
H  H19  1  0.49968000  0.74567000  0.70733000  1.0 0.2092458061
H  H20  1  0.41670000  0.45287000  0.49539000  1.0 0.0816648486
H  H21  1  0.44745000  0.47971000  0.47086000  1.0 0.0906925784
H  H22  1  0.43973000  0.16593000  0.24038000  1.0 0.0816648486
H  H23  1  0.59313000  0.11055000  0.55654000  1.0 0.1321337721
H  H24  1  0.80737000  0.35657000  0.93868000  1.0 0.1202930624
H  H25  1  0.66987000  0.38346000  0.82261000  1.0 0.1202930624
H  H26  1  0.88560000  0.07449000  0.74009000  1.0 0.1086055067
H  H27  1  0.02822000  0.05052000  0.84970000  1.0 0.1202930624
H  H28  1  0.04036000  0.27859000  0.15149000  1.0 0.1086055067
H  H29  1  0.90122000  0.31010000  0.04254000  1.0 0.1086055067
H  H30  1  0.14463000  0.32416000  0.34291000  1.0 0.1202930624
H  H31  1  0.02050000  0.28858000  0.25672000  1.0 0.1321337721
H  H32  1  0.21804000  0.54488000  0.68578000  1.0 0.1202930624
H  H33  1  0.54185000  0.46375000  0.54576000  1.0 0.0906925784
H  H34  1  0.39673000  0.23187000  0.16892000  1.0 0.1871278859
H  H35  1  0.35184000  0.18494000  0.16932000  1.0 0.0906925784
H  H36  1  0.49696000  0.41682000  0.54616000  1.0 0.0906925784
H  H37  1  0.08169000  0.52388000  0.59117000  1.0 0.2092458061
H  H38  1  0.50032000  0.20765000  0.24599000  1.0 0.2092458061
H  H39  1  0.54252000  0.57869000  0.49539000  1.0 0.0816648486
H  H40  1  0.49115000  0.52341000  0.47086000  1.0 0.0906925784
H  H41  1  0.57445000  0.30065000  0.24038000  1.0 0.0816648486
H  H42  1  0.94599000  0.46341000  0.55654000  1.0 0.1321337721
H  H43  1  0.08211000  0.63131000  0.93868000  1.0 0.1202930624
H  H44  1  0.93915000  0.65274000  0.82261000  1.0 0.1202930624
H  H45  1  0.16560000  0.35449000  0.74009000  1.0 0.1086055067
H  H46  1  0.29918000  0.32148000  0.84970000  1.0 0.1202930624
H  H47  1  0.37290000  0.61113000  0.15149000  1.0 0.1086055067
H  H48  1  0.23244000  0.64132000  0.04254000  1.0 0.1086055067
H  H49  1  0.51875000  0.69828000  0.34291000  1.0 0.1202930624
H  H50  1  0.46814000  0.73622000  0.25672000  1.0 0.1321337721
H  H51  1  0.64090000  0.96774000  0.68578000  1.0 0.1202930624
H  H52  1  0.58201000  0.50391000  0.54576000  1.0 0.0906925784
H  H53  1  0.43705000  0.27219000  0.16892000  1.0 0.1871278859
H  H54  1  0.48438000  0.31748000  0.16932000  1.0 0.0906925784
H  H55  1  0.62934000  0.54920000  0.54616000  1.0 0.0906925784
H  H56  1  0.56729000  0.00948000  0.59117000  1.0 0.2092458061
H  H57  1  0.53834000  0.24567000  0.24599000  1.0 0.2092458061
H  H58  1  0.45748000  0.95287000  0.03617000  1.0 0.0816648486
H  H59  1  0.50885000  0.97971000  0.03226000  1.0 0.0906925784
H  H60  1  0.42555000  0.66593000  0.72620000  1.0 0.0816648486
H  H61  1  0.05401000  0.61055000  0.51742000  1.0 0.1321337721
H  H62  1  0.91789000  0.85657000  0.54920000  1.0 0.1202930624
H  H63  1  0.06085000  0.88346000  0.71359000  1.0 0.1202930624
H  H64  1  0.83440000  0.57449000  0.18889000  1.0 0.1086055067
H  H65  1  0.70082000  0.55052000  0.02230000  1.0 0.1202930624
H  H66  1  0.62710000  0.77859000  0.23823000  1.0 0.1086055067
H  H67  1  0.76756000  0.81010000  0.40888000  1.0 0.1086055067
H  H68  1  0.48125000  0.82416000  0.17953000  1.0 0.1202930624
H  H69  1  0.53186000  0.78858000  0.26808000  1.0 0.1321337721
H  H70  1  0.35910000  0.04488000  0.32684000  1.0 0.1202930624
H  H71  1  0.41799000  0.96375000  0.92190000  1.0 0.0906925784
H  H72  1  0.56295000  0.73187000  0.83514000  1.0 0.1871278859
H  H73  1  0.51562000  0.68494000  0.83310000  1.0 0.0906925784
H  H74  1  0.37066000  0.91682000  0.91986000  1.0 0.0906925784
H  H75  1  0.43271000  0.02388000  0.44219000  1.0 0.2092458061
H  H76  1  0.46166000  0.70765000  0.70733000  1.0 0.2092458061
C  C1  1  0.60800000  0.97200000  0.87880000  1.0 0.5758657954
C  C2  1  0.52625000  0.88355000  0.87870000  1.0 -0.0725269322
C  C3  1  0.58010000  0.93780000  0.87630000  1.0 -0.0066170174
C  C4  1  0.57200000  0.01100000  0.97300000  1.0 -0.0385238374
C  C5  1  0.55120000  0.97720000  0.96600000  1.0 -0.0788608216
C  C6  1  0.52170000  0.81000000  0.77570000  1.0 -0.0990759356
C  C7  1  0.55570000  0.84670000  0.78700000  1.0 -0.0788608216
C  C8  1  0.47650000  0.08070000  0.74580000  1.0 0.5737612448
C  C9  1  0.38380000  0.06440000  0.63540000  1.0 -0.0039340266
C  C10  1  0.36290000  0.99690000  0.52400000  1.0 -0.1426906491
C  C11  1  0.28140000  0.97580000  0.42200000  1.0 0.0374501189
C  C12  1  0.21580000  0.02070000  0.42390000  1.0 0.0339220367
C  C13  1  0.23570000  0.09400000  0.54050000  1.0 -0.149355184
C  C14  1  0.31920000  0.10970000  0.64110000  1.0 -0.0990759356
C  C15  1  0.12190000  0.99700000  0.31010000  1.0 0.0613943185
C  C16  1  0.08280000  0.90670000  0.19890000  1.0 -0.149355184
C  C17  1  0.99820000  0.88520000  0.09700000  1.0 -0.0990759356
C  C18  1  0.95370000  0.96250000  0.11040000  1.0 -0.0233365283
C  C19  1  0.99090000  0.05890000  0.22800000  1.0 -0.0871137609
C  C20  1  0.07450000  0.07680000  0.32910000  1.0 -0.149355184
C  C21  1  0.85870000  0.94150000  0.99920000  1.0 0.6026505432
C  C22  1  0.72190000  0.29920000  0.17370000  1.0 0.6251874767
C  C23  1  0.80600000  0.32930000  0.24390000  1.0 -0.0385238374
C  C24  1  0.86520000  0.26050000  0.22730000  1.0 -0.0871137609
C  C25  1  0.94090000  0.28410000  0.28280000  1.0 -0.1426906491
C  C26  1  0.95860000  0.37780000  0.35900000  1.0 0.0374501189
C  C27  1  0.90310000  0.44380000  0.38110000  1.0 -0.0788608216
C  C28  1  0.82260000  0.42120000  0.31800000  1.0 -0.1131189489
C  C29  1  0.49620000  0.96650000  0.90410000  1.0 -0.0725269322
C  C30  1  0.58320000  0.82770000  0.85210000  1.0 -0.0725269322
C  C31  1  0.61010000  0.85480000  0.85090000  1.0 -0.0725269322
C  C32  1  0.52320000  0.99370000  0.90290000  1.0 -0.0385238374
C  C33  1  0.39200000  0.27080000  0.36400000  1.0 0.5758657954
C  C34  1  0.47375000  0.35245000  0.35730000  1.0 -0.0725269322
C  C35  1  0.41990000  0.29620000  0.35770000  1.0 -0.0066170174
C  C36  1  0.42800000  0.40100000  0.43900000  1.0 -0.0385238374
C  C37  1  0.44880000  0.41480000  0.42600000  1.0 -0.0788608216
C  C38  1  0.47830000  0.25400000  0.28830000  1.0 -0.0990759356
C  C39  1  0.44430000  0.23130000  0.29100000  1.0 -0.0788608216
C  C40  1  0.52350000  0.26930000  0.60420000  1.0 0.5737612448
C  C41  1  0.61620000  0.25160000  0.68060000  1.0 -0.0066170174
C  C42  1  0.63710000  0.16110000  0.63400000  1.0 -0.1426906491
C  C43  1  0.71860000  0.14060000  0.69440000  1.0 0.0374501189
C  C44  1  0.78420000  0.20810000  0.80490000  1.0 0.0339220367
C  C45  1  0.76430000  0.30480000  0.85830000  1.0 -0.149355184
C  C46  1  0.68080000  0.32190000  0.79050000  1.0 -0.0990759356
C  C47  1  0.87810000  0.18820000  0.87510000  1.0 0.0613943185
C  C48  1  0.91720000  0.11610000  0.82390000  1.0 -0.149355184
C  C49  1  0.00180000  0.09880000  0.88700000  1.0 -0.0990759356
C  C50  1  0.04630000  0.15670000  0.00880000  1.0 -0.0233365283
C  C51  1  0.00910000  0.23710000  0.06800000  1.0 -0.0871137609
C  C52  1  0.92550000  0.25460000  0.00230000  1.0 -0.149355184
C  C53  1  0.14130000  0.14050000  0.08280000  1.0 0.6026505432
C  C54  1  0.27810000  0.45180000  0.57730000  1.0 0.6246767245
C  C55  1  0.19400000  0.43790000  0.52330000  1.0 -0.0385238374
C  C56  1  0.13480000  0.36210000  0.39530000  1.0 -0.0871137609
C  C57  1  0.05910000  0.34190000  0.34320000  1.0 -0.149355184
C  C58  1  0.04140000  0.40040000  0.41920000  1.0 0.0374501189
C  C59  1  0.09690000  0.47800000  0.54070000  1.0 -0.0788608216
C  C60  1  0.17740000  0.49540000  0.59860000  1.0 -0.1131189489
C  C61  1  0.50380000  0.40790000  0.47030000  1.0 -0.0725269322
C  C62  1  0.41680000  0.26890000  0.24450000  1.0 -0.0725269322
C  C63  1  0.38990000  0.24080000  0.24470000  1.0 -0.0725269322
C  C64  1  0.47680000  0.37970000  0.47050000  1.0 -0.0385238374
C  C65  1  0.59320000  0.47200000  0.36400000  1.0 0.5758657954
C  C66  1  0.50485000  0.38355000  0.35730000  1.0 -0.0725269322
C  C67  1  0.56150000  0.43780000  0.35770000  1.0 -0.0066170174
C  C68  1  0.53800000  0.51100000  0.43900000  1.0 -0.0385238374
C  C69  1  0.51120000  0.47720000  0.42600000  1.0 -0.0788608216
C  C70  1  0.53430000  0.31000000  0.28830000  1.0 -0.0990759356
C  C71  1  0.55970000  0.34670000  0.29100000  1.0 -0.0788608216
C  C72  1  0.83490000  0.58070000  0.60420000  1.0 0.5737612448
C  C73  1  0.92900000  0.56440000  0.68060000  1.0 -0.0066170174
C  C74  1  0.97290000  0.49690000  0.63400000  1.0 -0.1426906491
C  C75  1  0.05380000  0.47580000  0.69440000  1.0 0.0374501189
C  C76  1  0.09680000  0.52070000  0.80490000  1.0 0.0339220367
C  C77  1  0.05350000  0.59400000  0.85830000  1.0 -0.149355184
C  C78  1  0.96860000  0.60970000  0.79050000  1.0 -0.0990759356
C  C79  1  0.18690000  0.49700000  0.87510000  1.0 0.0613943185
C  C80  1  0.20780000  0.40670000  0.82390000  1.0 -0.149355184
C  C81  1  0.28820000  0.38520000  0.88700000  1.0 -0.0990759356
C  C82  1  0.35210000  0.46250000  0.00880000  1.0 -0.0233365283
C  C83  1  0.33090000  0.55890000  0.06800000  1.0 -0.0871137609
C  C84  1  0.24770000  0.57680000  0.00230000  1.0 -0.149355184
C  C85  1  0.44230000  0.44150000  0.08280000  1.0 0.6026505432
C  C86  1  0.62550000  0.79920000  0.57730000  1.0 0.6246767245
C  C87  1  0.58540000  0.82930000  0.52330000  1.0 -0.0385238374
C  C88  1  0.53320000  0.76050000  0.39530000  1.0 -0.0871137609
C  C89  1  0.50130000  0.78410000  0.34320000  1.0 -0.1426906491
C  C90  1  0.51880000  0.87780000  0.41920000  1.0 0.0374501189
C  C91  1  0.56270000  0.94380000  0.54070000  1.0 -0.0788608216
C  C92  1  0.60320000  0.92120000  0.59860000  1.0 -0.1131189489
C  C93  1  0.56240000  0.46650000  0.47030000  1.0 -0.0725269322
C  C94  1  0.47560000  0.32770000  0.24450000  1.0 -0.0725269322
C  C95  1  0.50390000  0.35480000  0.24470000  1.0 -0.0725269322
C  C96  1  0.59080000  0.49370000  0.47050000  1.0 -0.0385238374
C  C97  1  0.40680000  0.77080000  0.87880000  1.0 0.5758657954
C  C98  1  0.49515000  0.85245000  0.87870000  1.0 -0.0725269322
C  C99  1  0.43850000  0.79620000  0.87630000  1.0 -0.0066170174
C  C100  1  0.46200000  0.90100000  0.97300000  1.0 -0.0385238374
C  C101  1  0.48880000  0.91480000  0.96600000  1.0 -0.0788608216
C  C102  1  0.46570000  0.75400000  0.77570000  1.0 -0.0990759356
C  C103  1  0.44030000  0.73130000  0.78700000  1.0 -0.0788608216
C  C104  1  0.16510000  0.76930000  0.74580000  1.0 0.5737612448
C  C105  1  0.07100000  0.75160000  0.63540000  1.0 -0.0066170174
C  C106  1  0.02710000  0.66110000  0.52400000  1.0 -0.1426906491
C  C107  1  0.94620000  0.64060000  0.42200000  1.0 0.0374501189
C  C108  1  0.90320000  0.70810000  0.42390000  1.0 0.0339220367
C  C109  1  0.94650000  0.80480000  0.54050000  1.0 -0.149355184
C  C110  1  0.03140000  0.82190000  0.64110000  1.0 -0.0990759356
C  C111  1  0.81310000  0.68820000  0.31010000  1.0 0.0613943185
C  C112  1  0.79220000  0.61610000  0.19890000  1.0 -0.149355184
C  C113  1  0.71180000  0.59880000  0.09700000  1.0 -0.0990759356
C  C114  1  0.64790000  0.65670000  0.11040000  1.0 -0.0233365283
C  C115  1  0.66910000  0.73710000  0.22800000  1.0 -0.0871137609
C  C116  1  0.75230000  0.75460000  0.32910000  1.0 -0.149355184
C  C117  1  0.55770000  0.64050000  0.99920000  1.0 0.6026505432
C  C118  1  0.37450000  0.95180000  0.17370000  1.0 0.6246767245
C  C119  1  0.41460000  0.93790000  0.24390000  1.0 -0.0385238374
C  C120  1  0.46680000  0.86210000  0.22730000  1.0 -0.0871137609
C  C121  1  0.49870000  0.84190000  0.28280000  1.0 -0.1426906491
C  C122  1  0.48120000  0.90040000  0.35900000  1.0 0.0374501189
C  C123  1  0.43730000  0.97800000  0.38110000  1.0 -0.0788608216
C  C124  1  0.39680000  0.99540000  0.31800000  1.0 -0.1131189489
C  C125  1  0.43760000  0.90790000  0.90410000  1.0 -0.0725269322
C  C126  1  0.52440000  0.76890000  0.85210000  1.0 -0.0725269322
C  C127  1  0.49610000  0.74080000  0.85090000  1.0 -0.0725269322
C  C128  1  0.40920000  0.87970000  0.90290000  1.0 -0.0385238374
N  N1  1  0.27170000  0.89800000  0.30970000  1.0 0.4102924071
N  N2  1  0.93130000  0.54740000  0.48590000  1.0 0.3174184314
N  N3  1  0.48398000  0.70938000  0.66396000  1.0 -0.0039340266
N  N4  1  0.61454000  0.73954000  0.82594000  1.0 -0.0534257763
N  N5  1  0.72830000  0.03800000  0.62630000  1.0 0.4102924071
N  N6  1  0.06870000  0.55460000  0.61610000  1.0 0.3174184314
N  N7  1  0.51602000  0.17998000  0.22540000  1.0 -0.0066170174
N  N8  1  0.38546000  0.21140000  0.12500000  1.0 -0.0534257763
N  N9  1  0.08830000  0.39800000  0.62630000  1.0 0.4102924071
N  N10  1  0.56150000  0.04740000  0.61610000  1.0 0.3174184314
N  N11  1  0.54542000  0.20938000  0.22540000  1.0 -0.0039340266
N  N12  1  0.41360000  0.23954000  0.12500000  1.0 -0.0534257763
N  N13  1  0.91170000  0.53800000  0.30970000  1.0 0.4179769061
N  N14  1  0.43850000  0.05460000  0.48590000  1.0 0.3174184314
N  N15  1  0.45458000  0.67998000  0.66396000  1.0 -0.0039340266
N  N16  1  0.58640000  0.71140000  0.82594000  1.0 -0.0534257763
O  O1  1  0.63920000  0.90830000  0.82290000  1.0 -0.6402103849
O  O2  1  0.59750000  0.05680000  0.93030000  1.0 -0.6100441017
O  O3  1  0.52690000  0.02840000  0.72850000  1.0 -0.5244044461
O  O4  1  0.48950000  0.14740000  0.84370000  1.0 -0.5794966467
O  O5  1  0.82450000  0.85850000  0.90160000  1.0 -0.6100441017
O  O6  1  0.82600000  0.01630000  0.01730000  1.0 -0.6707259961
O  O7  1  0.67272000  0.36782000  0.20470000  1.0 -0.6843189397
O  O8  1  0.70279000  0.21259000  0.09340000  1.0 -0.634323115
O  O9  1  0.30180000  0.81980000  0.27000000  1.0 -0.2625080593
O  O10  1  0.23720000  0.91800000  0.26120000  1.0 -0.2330397577
O  O11  1  0.94360000  0.57260000  0.47500000  1.0 -0.3817498707
O  O12  1  0.93990000  0.60890000  0.58100000  1.0 -0.2330397577
O  O13  1  0.51898000  0.64186000  0.61464000  1.0 -0.2411008799
O  O14  1  0.42077000  0.68994000  0.62131000  1.0 -0.0291763465
O  O15  1  0.68621000  0.72195000  0.87444000  1.0 -0.1734335222
O  O16  1  0.36080000  0.18370000  0.26910000  1.0 -0.6402103849
O  O17  1  0.40250000  0.33280000  0.45930000  1.0 -0.6100441017
O  O18  1  0.47310000  0.20160000  0.50150000  1.0 -0.5244044461
O  O19  1  0.51050000  0.35420000  0.65790000  1.0 -0.5794966467
O  O20  1  0.17550000  0.07710000  0.03400000  1.0 -0.6100441017
O  O21  1  0.17400000  0.19130000  0.19030000  1.0 -0.6707259961
O  O22  1  0.32728000  0.53198000  0.69510000  1.0 -0.6855559546
O  O23  1  0.29721000  0.39061000  0.50980000  1.0 -0.634323115
O  O24  1  0.69820000  0.96820000  0.51800000  1.0 -0.2625080593
O  O25  1  0.76280000  0.02400000  0.68080000  1.0 -0.2330397577
O  O26  1  0.05640000  0.53140000  0.62900000  1.0 -0.3817498707
O  O27  1  0.06010000  0.64110000  0.66900000  1.0 -0.2330397577
O  O28  1  0.48102000  0.09566000  0.12288000  1.0 -0.2411008799
O  O29  1  0.57923000  0.20054000  0.26917000  1.0 -0.0291763465
O  O30  1  0.31379000  0.18823000  0.03574000  1.0 -0.1734335222
O  O31  1  0.58540000  0.40830000  0.26910000  1.0 -0.6402103849
O  O32  1  0.62650000  0.55680000  0.45930000  1.0 -0.6100441017
O  O33  1  0.79990000  0.52840000  0.50150000  1.0 -0.5262606539
O  O34  1  0.80370000  0.64740000  0.65790000  1.0 -0.5794966467
O  O35  1  0.45690000  0.35850000  0.03400000  1.0 -0.6100441017
O  O36  1  0.49900000  0.51630000  0.19030000  1.0 -0.6707259961
O  O37  1  0.66312000  0.86782000  0.69510000  1.0 -0.6855559546
O  O38  1  0.61919000  0.71259000  0.50980000  1.0 -0.634323115
O  O39  1  0.04980000  0.31980000  0.51800000  1.0 -0.2625080593
O  O40  1  0.15680000  0.41800000  0.68080000  1.0 -0.2330397577
O  O41  1  0.59760000  0.07260000  0.62900000  1.0 -0.3817498707
O  O42  1  0.52790000  0.10890000  0.66900000  1.0 -0.2330397577
O  O43  1  0.52722000  0.14186000  0.12288000  1.0 -0.2411008799
O  O44  1  0.56863000  0.18994000  0.26917000  1.0 -0.0291763465
O  O45  1  0.34751000  0.22195000  0.03574000  1.0 -0.1734335222
O  O46  1  0.41460000  0.68370000  0.82290000  1.0 -0.6402103849
O  O47  1  0.37350000  0.83280000  0.93030000  1.0 -0.6100441017
O  O48  1  0.20010000  0.70160000  0.72850000  1.0 -0.5244044461
O  O49  1  0.19630000  0.85420000  0.84370000  1.0 -0.5794966467
O  O50  1  0.54310000  0.57710000  0.90160000  1.0 -0.6100441017
O  O51  1  0.50100000  0.69130000  0.01730000  1.0 -0.6707259961
O  O52  1  0.33688000  0.03198000  0.20470000  1.0 -0.6855559546
O  O53  1  0.38081000  0.89061000  0.09340000  1.0 -0.634323115
O  O54  1  0.95020000  0.46820000  0.27000000  1.0 -0.2625080593
O  O55  1  0.84320000  0.52400000  0.26120000  1.0 -0.2330397577
O  O56  1  0.40240000  0.03140000  0.47500000  1.0 -0.3817498707
O  O57  1  0.47210000  0.14110000  0.58100000  1.0 -0.2330397577
O  O58  1  0.47278000  0.59566000  0.61464000  1.0 -0.2411008799
O  O59  1  0.43137000  0.70054000  0.62131000  1.0 -0.0291763465
O  O60  1  0.65249000  0.68823000  0.87444000  1.0 -0.1734335222
O  O61  1  0.55833000  0.67642000  0.73475000  1.0 0.1626451067
O  O62  1  0.44167000  0.17642000  0.11809000  1.0 0.170742055
