# DDEC6 charges by PACMAN v1.1 (https://github.com/mtap-research/PACMAN-charge/)
data_ZIQWUU_ASR_pacman
_symmetry_space_group_name_H-M   'P 1'
_cell_length_a   27.19030000
_cell_length_b   27.19030000
_cell_length_c   13.91350000
_cell_angle_alpha   76.47920000
_cell_angle_beta   103.52100000
_cell_angle_gamma   145.21000000
_symmetry_Int_Tables_number   1
_chemical_formula_structural   SrH6C14(NO4)2
_chemical_formula_sum   'Sr8 H48 C112 N16 O64'
_cell_volume   5690.24667392
_cell_formula_units_Z   8
loop_
 _symmetry_equiv_pos_site_id
 _symmetry_equiv_pos_as_xyz
  1  'x, y, z'
loop_
 _atom_site_type_symbol
 _atom_site_label
 _atom_site_symmetry_multiplicity
 _atom_site_fract_x
 _atom_site_fract_y
 _atom_site_fract_z
 _atom_site_occupancy
 _atom_site_charge
Sr  Sr1  1  0.18306000  0.94448000  0.29740000  1.0 1.4592075687
Sr  Sr2  1  0.38707000  0.57917000  0.32067000  1.0 1.4322321158
Sr  Sr3  1  0.42992000  0.69550000  0.52947000  1.0 1.4592075687
Sr  Sr4  1  0.07679000  0.91085000  0.02121000  1.0 1.4361867648
Sr  Sr5  1  0.05552000  0.81694000  0.79740000  1.0 1.4592075687
Sr  Sr6  1  0.42083000  0.61293000  0.82067000  1.0 1.4322321158
Sr  Sr7  1  0.30450000  0.57008000  0.02947000  1.0 1.4592075687
Sr  Sr8  1  0.08915000  0.92321000  0.52121000  1.0 1.4361867648
H  H1  1  0.95730000  0.89990000  0.34540000  1.0 0.12969088
H  H2  1  0.88360000  0.76380000  0.14000000  1.0 0.1206183237
H  H3  1  0.75940000  0.71400000  0.09300000  1.0 0.1206183237
H  H4  1  0.60950000  0.75430000  0.00590000  1.0 0.1206183237
H  H5  1  0.73340000  0.80840000  0.04800000  1.0 0.12969088
H  H6  1  0.49840000  0.57320000  0.23110000  1.0 0.1355455112
H  H7  1  0.10270000  0.28650000  0.38660000  1.0 0.12969088
H  H8  1  0.97190000  0.14830000  0.40800000  1.0 0.12969088
H  H9  1  0.02910000  0.30670000  0.11880000  1.0 0.12969088
H  H10  1  0.81120000  0.06820000  0.40460000  1.0 0.1206183237
H  H11  1  0.67750000  0.91590000  0.45840000  1.0 0.1206183237
H  H12  1  0.68080000  0.85360000  0.22610000  1.0 0.1355455112
H  H13  1  0.35120000  0.22520000  0.94510000  1.0 0.12969088
H  H14  1  0.49310000  0.36250000  0.92990000  1.0 0.1206183237
H  H15  1  0.40310000  0.16790000  0.19100000  1.0 0.1355455112
H  H16  1  0.36460000  0.73920000  0.08680000  1.0 0.12969088
H  H17  1  0.23440000  0.71160000  0.30150000  1.0 0.1206183237
H  H18  1  0.27840000  0.66360000  0.35430000  1.0 0.1206183237
H  H19  1  0.11430000  0.75910000  0.97060000  1.0 0.1206183237
H  H20  1  0.25460000  0.89780000  0.20970000  1.0 0.1206183237
H  H21  1  0.29550000  0.84650000  0.25400000  1.0 0.12969088
H  H22  1  0.78510000  0.54970000  0.88830000  1.0 0.1143323672
H  H23  1  0.63280000  0.40860000  0.91940000  1.0 0.12969088
H  H24  1  0.80230000  0.63770000  0.10280000  1.0 0.12969088
H  H25  1  0.10010000  0.04270000  0.84540000  1.0 0.12969088
H  H26  1  0.23620000  0.11640000  0.64000000  1.0 0.1206183237
H  H27  1  0.28600000  0.24060000  0.59300000  1.0 0.1206183237
H  H28  1  0.24570000  0.39050000  0.50590000  1.0 0.1206183237
H  H29  1  0.19160000  0.26660000  0.54800000  1.0 0.12969088
H  H30  1  0.42680000  0.50160000  0.73110000  1.0 0.1355455112
H  H31  1  0.71350000  0.89730000  0.88660000  1.0 0.12969088
H  H32  1  0.85170000  0.02810000  0.90800000  1.0 0.12969088
H  H33  1  0.69330000  0.97090000  0.61880000  1.0 0.12969088
H  H34  1  0.93180000  0.18880000  0.90460000  1.0 0.1206183237
H  H35  1  0.08410000  0.32250000  0.95840000  1.0 0.1206183237
H  H36  1  0.14640000  0.31920000  0.72610000  1.0 0.1355455112
H  H37  1  0.77480000  0.64880000  0.44510000  1.0 0.12969088
H  H38  1  0.63750000  0.50690000  0.42990000  1.0 0.1206183237
H  H39  1  0.83210000  0.59690000  0.69100000  1.0 0.1355455112
H  H40  1  0.26080000  0.63540000  0.58680000  1.0 0.12969088
H  H41  1  0.28840000  0.76560000  0.80150000  1.0 0.1206183237
H  H42  1  0.33640000  0.72160000  0.85430000  1.0 0.1206183237
H  H43  1  0.24090000  0.88570000  0.47060000  1.0 0.1206183237
H  H44  1  0.10220000  0.74540000  0.70970000  1.0 0.1206183237
H  H45  1  0.15350000  0.70450000  0.75400000  1.0 0.12969088
H  H46  1  0.45030000  0.21490000  0.38830000  1.0 0.1143323672
H  H47  1  0.59140000  0.36720000  0.41940000  1.0 0.12969088
H  H48  1  0.36230000  0.19770000  0.60280000  1.0 0.12969088
C  C1  1  0.92050000  0.86570000  0.29200000  1.0 -0.1284771259
C  C2  1  0.02360000  0.88560000  0.25660000  1.0 0.6251922589
C  C3  1  0.93890000  0.84630000  0.23520000  1.0 -0.0197093089
C  C4  1  0.87580000  0.78420000  0.16940000  1.0 -0.07933165
C  C5  1  0.79790000  0.75030000  0.14460000  1.0 -0.1368420585
C  C6  1  0.77980000  0.77120000  0.19740000  1.0 0.0301821083
C  C7  1  0.84310000  0.83070000  0.26400000  1.0 0.0301821083
C  C8  1  0.45630000  0.61990000  0.08860000  1.0 0.6125993472
C  C9  1  0.53910000  0.65630000  0.11620000  1.0 -0.0086120248
C  C10  1  0.61240000  0.72920000  0.06060000  1.0 -0.0871746498
C  C11  1  0.68710000  0.76250000  0.08730000  1.0 -0.1368420585
C  C12  1  0.69640000  0.73060000  0.17090000  1.0 0.049455401
C  C13  1  0.62000000  0.65360000  0.21740000  1.0 0.0197275186
C  C14  1  0.54550000  0.62090000  0.19340000  1.0 -0.1368420585
C  C15  1  0.17870000  0.40670000  0.22500000  1.0 0.5912765008
C  C16  1  0.08170000  0.31070000  0.25000000  1.0 -0.0086120248
C  C17  1  0.05990000  0.26130000  0.33520000  1.0 -0.0871746498
C  C18  1  0.98150000  0.17950000  0.34900000  1.0 -0.119568191
C  C19  1  0.91420000  0.13960000  0.27990000  1.0 0.0301821083
C  C20  1  0.93610000  0.19190000  0.19470000  1.0 0.0197275186
C  C21  1  0.01740000  0.27500000  0.17800000  1.0 -0.1368420585
C  C22  1  0.82980000  0.04700000  0.29900000  1.0 0.0301821083
C  C23  1  0.78730000  0.02470000  0.37300000  1.0 -0.1284771259
C  C24  1  0.70280000  0.93120000  0.40300000  1.0 -0.07933165
C  C25  1  0.66400000  0.86860000  0.34530000  1.0 -0.0018025451
C  C26  1  0.70700000  0.89520000  0.26500000  1.0 -0.119568191
C  C27  1  0.78350000  0.97750000  0.24290000  1.0 0.0301821083
C  C28  1  0.26700000  0.09600000  0.07300000  1.0 0.5912765008
C  C29  1  0.36200000  0.18300000  0.06820000  1.0 -0.0197093089
C  C30  1  0.39180000  0.24140000  0.99390000  1.0 -0.0705137304
C  C31  1  0.47730000  0.32390000  0.98200000  1.0 -0.1284771259
C  C32  1  0.54050000  0.34750000  0.05370000  1.0 0.0422734492
C  C33  1  0.51170000  0.28610000  0.13090000  1.0 0.0197275186
C  C34  1  0.42220000  0.20680000  0.13660000  1.0 -0.1591366538
C  C35  1  0.34760000  0.65880000  0.25700000  1.0 0.6125993472
C  C36  1  0.32590000  0.69670000  0.22580000  1.0 -0.0086120248
C  C37  1  0.33850000  0.73370000  0.12990000  1.0 -0.1591366538
C  C38  1  0.31210000  0.76250000  0.09820000  1.0 0.0197275186
C  C39  1  0.27320000  0.75420000  0.16250000  1.0 0.049455401
C  C40  1  0.26060000  0.71720000  0.25850000  1.0 -0.1284771259
C  C41  1  0.28680000  0.68840000  0.29010000  1.0 -0.07933165
C  C42  1  0.14670000  0.86110000  0.06130000  1.0 0.5912765008
C  C43  1  0.22950000  0.77210000  0.13880000  1.0 0.059428547
C  C44  1  0.17510000  0.74590000  0.05390000  1.0 0.0197275186
C  C45  1  0.15060000  0.77660000  0.02740000  1.0 -0.1591366538
C  C46  1  0.18030000  0.83350000  0.08570000  1.0 -0.0086120248
C  C47  1  0.23470000  0.85970000  0.17060000  1.0 -0.07933165
C  C48  1  0.25920000  0.82900000  0.19720000  1.0 -0.119568191
C  C49  1  0.89450000  0.69550000  0.96300000  1.0 0.6125993472
C  C50  1  0.80130000  0.60330000  0.99410000  1.0 0.0018813773
C  C51  1  0.75890000  0.53970000  0.93720000  1.0 -0.0705137304
C  C52  1  0.66710000  0.45290000  0.96000000  1.0 -0.1115860749
C  C53  1  0.63310000  0.43730000  0.03660000  1.0 0.0422734492
C  C54  1  0.68510000  0.50770000  0.09380000  1.0 0.0197275186
C  C55  1  0.76950000  0.59130000  0.06750000  1.0 -0.119568191
C  C56  1  0.57590000  0.77570000  0.36890000  1.0 0.5912765008
C  C57  1  0.13430000  0.07950000  0.79200000  1.0 -0.1284771259
C  C58  1  0.11440000  0.97640000  0.75660000  1.0 0.6251922589
C  C59  1  0.15370000  0.06110000  0.73520000  1.0 -0.0197093089
C  C60  1  0.21580000  0.12420000  0.66940000  1.0 -0.07933165
C  C61  1  0.24970000  0.20210000  0.64460000  1.0 -0.1368420585
C  C62  1  0.22880000  0.22020000  0.69740000  1.0 0.0301821083
C  C63  1  0.16930000  0.15690000  0.76400000  1.0 0.0301821083
C  C64  1  0.38010000  0.54370000  0.58860000  1.0 0.6125993472
C  C65  1  0.34370000  0.46090000  0.61620000  1.0 -0.0086120248
C  C66  1  0.27080000  0.38760000  0.56060000  1.0 -0.0871746498
C  C67  1  0.23750000  0.31290000  0.58730000  1.0 -0.1368420585
C  C68  1  0.26940000  0.30360000  0.67090000  1.0 0.049455401
C  C69  1  0.34640000  0.38000000  0.71740000  1.0 0.0197275186
C  C70  1  0.37910000  0.45450000  0.69340000  1.0 -0.1368420585
C  C71  1  0.59330000  0.82130000  0.72500000  1.0 0.5912765008
C  C72  1  0.68930000  0.91830000  0.75000000  1.0 -0.0086120248
C  C73  1  0.73870000  0.94010000  0.83520000  1.0 -0.0871746498
C  C74  1  0.82050000  0.01850000  0.84900000  1.0 -0.119568191
C  C75  1  0.86040000  0.08580000  0.77990000  1.0 0.0301821083
C  C76  1  0.80810000  0.06390000  0.69470000  1.0 0.0197275186
C  C77  1  0.72500000  0.98260000  0.67800000  1.0 -0.1368420585
C  C78  1  0.95300000  0.17020000  0.79900000  1.0 0.0301821083
C  C79  1  0.97530000  0.21270000  0.87300000  1.0 -0.1284771259
C  C80  1  0.06880000  0.29720000  0.90300000  1.0 -0.07933165
C  C81  1  0.13140000  0.33600000  0.84530000  1.0 -0.0018025451
C  C82  1  0.10480000  0.29300000  0.76500000  1.0 -0.119568191
C  C83  1  0.02250000  0.21650000  0.74290000  1.0 0.0301821083
C  C84  1  0.90400000  0.73300000  0.57300000  1.0 0.5912765008
C  C85  1  0.81700000  0.63800000  0.56820000  1.0 -0.0197093089
C  C86  1  0.75860000  0.60820000  0.49390000  1.0 -0.0705137304
C  C87  1  0.67610000  0.52270000  0.48200000  1.0 -0.1284771259
C  C88  1  0.65250000  0.45950000  0.55370000  1.0 0.0422734492
C  C89  1  0.71390000  0.48830000  0.63090000  1.0 0.0197275186
C  C90  1  0.79320000  0.57780000  0.63660000  1.0 -0.1591366538
C  C91  1  0.34120000  0.65240000  0.75700000  1.0 0.6125993472
C  C92  1  0.30330000  0.67410000  0.72580000  1.0 -0.0086120248
C  C93  1  0.26630000  0.66150000  0.62990000  1.0 -0.1591366538
C  C94  1  0.23750000  0.68790000  0.59820000  1.0 0.0197275186
C  C95  1  0.24580000  0.72680000  0.66250000  1.0 0.049455401
C  C96  1  0.28280000  0.73940000  0.75850000  1.0 -0.1284771259
C  C97  1  0.31160000  0.71320000  0.79010000  1.0 -0.07933165
C  C98  1  0.13890000  0.85330000  0.56130000  1.0 0.5912765008
C  C99  1  0.22790000  0.77050000  0.63880000  1.0 0.059428547
C  C100  1  0.25410000  0.82490000  0.55390000  1.0 0.0197275186
C  C101  1  0.22340000  0.84940000  0.52740000  1.0 -0.1591366538
C  C102  1  0.16650000  0.81970000  0.58570000  1.0 -0.0086120248
C  C103  1  0.14030000  0.76530000  0.67060000  1.0 -0.07933165
C  C104  1  0.17100000  0.74080000  0.69720000  1.0 -0.119568191
C  C105  1  0.30450000  0.10550000  0.46300000  1.0 0.6125993472
C  C106  1  0.39670000  0.19870000  0.49410000  1.0 0.0018813773
C  C107  1  0.46030000  0.24110000  0.43720000  1.0 -0.0705137304
C  C108  1  0.54710000  0.33290000  0.46000000  1.0 -0.1115860749
C  C109  1  0.56270000  0.36690000  0.53660000  1.0 0.0422734492
C  C110  1  0.49230000  0.31490000  0.59380000  1.0 0.0197275186
C  C111  1  0.40870000  0.23050000  0.56750000  1.0 -0.119568191
C  C112  1  0.22430000  0.42410000  0.86890000  1.0 0.5912765008
N  N1  1  0.82460000  0.99540000  0.16700000  1.0 0.4704339248
N  N2  1  0.83640000  0.86800000  0.30880000  1.0 0.504263627
N  N3  1  0.61740000  0.60560000  0.29700000  1.0 0.5082065803
N  N4  1  0.86900000  0.15820000  0.11700000  1.0 0.5082065803
N  N5  1  0.57220000  0.30580000  0.20800000  1.0 0.504263627
N  N6  1  0.34420000  0.81440000  0.00510000  1.0 0.504263627
N  N7  1  0.65210000  0.49970000  0.17500000  1.0 0.504263627
N  N8  1  0.14030000  0.68930000  0.98500000  1.0 0.504263627
N  N9  1  0.00460000  0.17540000  0.66700000  1.0 0.4704339248
N  N10  1  0.13200000  0.16360000  0.80880000  1.0 0.504263627
N  N11  1  0.39440000  0.38260000  0.79700000  1.0 0.5082065803
N  N12  1  0.84180000  0.13100000  0.61700000  1.0 0.5082065803
N  N13  1  0.69420000  0.42780000  0.70800000  1.0 0.504263627
N  N14  1  0.18560000  0.65580000  0.50510000  1.0 0.504263627
N  N15  1  0.50030000  0.34790000  0.67500000  1.0 0.5082065803
N  N16  1  0.31070000  0.85970000  0.48500000  1.0 0.504263627
O  O1  1  0.78180000  0.95220000  0.09600000  1.0 -0.288916308
O  O2  1  0.04340000  0.87680000  0.19770000  1.0 -0.6490962911
O  O3  1  0.79780000  0.10420000  0.15000000  1.0 -0.3210119638
O  O4  1  0.07140000  0.92460000  0.33700000  1.0 -0.6885112781
O  O5  1  0.55010000  0.52670000  0.31000000  1.0 -0.3210119638
O  O6  1  0.90240000  0.94700000  0.32300000  1.0 -0.3574242423
O  O7  1  0.76580000  0.82040000  0.33100000  1.0 -0.3102462697
O  O8  1  0.44660000  0.63920000  0.99890000  1.0 -0.701941039
O  O9  1  0.40540000  0.57740000  0.15120000  1.0 -0.5987278877
O  O10  1  0.22700000  0.43440000  0.29860000  1.0 -0.5809331792
O  O11  1  0.90170000  0.06430000  0.15500000  1.0 -0.288916308
O  O12  1  0.18750000  0.43510000  0.13970000  1.0 -0.5877461094
O  O13  1  0.68010000  0.65110000  0.35800000  1.0 -0.3210119638
O  O14  1  0.88660000  0.19840000  0.03700000  1.0 -0.3102462697
O  O15  1  0.54110000  0.72510000  0.30300000  1.0 -0.6603594828
O  O16  1  0.54360000  0.75760000  0.43980000  1.0 -0.5987278877
O  O17  1  0.93280000  0.75440000  0.01790000  1.0 -0.6603594828
O  O18  1  0.22450000  0.07250000  0.99520000  1.0 -0.5670928019
O  O19  1  0.24070000  0.05410000  0.15660000  1.0 -0.6490962911
O  O20  1  0.65110000  0.37070000  0.19600000  1.0 -0.339160771
O  O21  1  0.54510000  0.25510000  0.28200000  1.0 -0.3327068943
O  O22  1  0.36810000  0.65750000  0.34470000  1.0 -0.6188972253
O  O23  1  0.34190000  0.62770000  0.19230000  1.0 -0.6793039102
O  O24  1  0.40100000  0.84260000  0.96600000  1.0 -0.3210119638
O  O25  1  0.11320000  0.85220000  0.97990000  1.0 -0.5987278877
O  O26  1  0.15590000  0.89290000  0.12550000  1.0 -0.6068913001
O  O27  1  0.92360000  0.70740000  0.89020000  1.0 -0.6188972253
O  O28  1  0.57900000  0.42860000  0.19900000  1.0 -0.339160771
O  O29  1  0.69740000  0.56380000  0.21800000  1.0 -0.339160771
O  O30  1  0.11730000  0.62670000  0.02000000  1.0 -0.3574242423
O  O31  1  0.31190000  0.83010000  0.96400000  1.0 -0.354793455
O  O32  1  0.13440000  0.70360000  0.89500000  1.0 -0.3574242423
O  O33  1  0.04780000  0.21820000  0.59600000  1.0 -0.288916308
O  O34  1  0.12320000  0.95660000  0.69770000  1.0 -0.6490962911
O  O35  1  0.89580000  0.20220000  0.65000000  1.0 -0.3210119638
O  O36  1  0.07540000  0.92860000  0.83700000  1.0 -0.6885112781
O  O37  1  0.47330000  0.44990000  0.81000000  1.0 -0.3210119638
O  O38  1  0.05300000  0.09760000  0.82300000  1.0 -0.3574242423
O  O39  1  0.17960000  0.23420000  0.83100000  1.0 -0.3102462697
O  O40  1  0.36080000  0.55340000  0.49890000  1.0 -0.701941039
O  O41  1  0.42260000  0.59460000  0.65120000  1.0 -0.5987278877
O  O42  1  0.56560000  0.77300000  0.79860000  1.0 -0.5809331792
O  O43  1  0.93570000  0.09830000  0.65500000  1.0 -0.288916308
O  O44  1  0.56490000  0.81250000  0.63970000  1.0 -0.5877461094
O  O45  1  0.34890000  0.31990000  0.85800000  1.0 -0.3210119638
O  O46  1  0.80160000  0.11340000  0.53700000  1.0 -0.3102462697
O  O47  1  0.27490000  0.45890000  0.80300000  1.0 -0.6603594828
O  O48  1  0.24240000  0.45640000  0.93980000  1.0 -0.5987278877
O  O49  1  0.24560000  0.06720000  0.51790000  1.0 -0.6603594828
O  O50  1  0.92750000  0.77550000  0.49520000  1.0 -0.5670928019
O  O51  1  0.94590000  0.75930000  0.65660000  1.0 -0.6490962911
O  O52  1  0.62930000  0.34890000  0.69600000  1.0 -0.339160771
O  O53  1  0.74490000  0.45490000  0.78200000  1.0 -0.3327068943
O  O54  1  0.34250000  0.63190000  0.84470000  1.0 -0.6188972253
O  O55  1  0.37230000  0.65810000  0.69230000  1.0 -0.6793039102
O  O56  1  0.15740000  0.59900000  0.46600000  1.0 -0.3210119638
O  O57  1  0.14780000  0.88680000  0.47990000  1.0 -0.5987278877
O  O58  1  0.10710000  0.84410000  0.62550000  1.0 -0.6068913001
O  O59  1  0.29260000  0.07640000  0.39020000  1.0 -0.6188972253
O  O60  1  0.57140000  0.42100000  0.69900000  1.0 -0.339160771
O  O61  1  0.43620000  0.30260000  0.71800000  1.0 -0.339160771
O  O62  1  0.37330000  0.88270000  0.52000000  1.0 -0.3574242423
O  O63  1  0.16990000  0.68810000  0.46400000  1.0 -0.3574242423
O  O64  1  0.29640000  0.86560000  0.39500000  1.0 -0.3574242423
