# DDEC6 charges by PACMAN v1.1 (https://github.com/mtap-research/PACMAN-charge/)
data_ZISKOF_ASR_pacman
_symmetry_space_group_name_H-M   'P 1'
_cell_length_a   10.42070000
_cell_length_b   10.42070000
_cell_length_c   14.30150000
_cell_angle_alpha   90.00000000
_cell_angle_beta   90.00000000
_cell_angle_gamma   90.00000000
_symmetry_Int_Tables_number   1
_chemical_formula_structural   TbH7C9(NO3)2
_chemical_formula_sum   'Tb4 H28 C36 N8 O24'
_cell_volume   1553.01402189
_cell_formula_units_Z   4
loop_
 _symmetry_equiv_pos_site_id
 _symmetry_equiv_pos_as_xyz
  1  'x, y, z'
loop_
 _atom_site_type_symbol
 _atom_site_label
 _atom_site_symmetry_multiplicity
 _atom_site_fract_x
 _atom_site_fract_y
 _atom_site_fract_z
 _atom_site_occupancy
 _atom_site_charge
Tb  Tb1  1  0.86365000  0.13635000  0.37500000  1.0 2.0402046425
Tb  Tb2  1  0.13635000  0.86365000  0.87500000  1.0 2.0402046425
Tb  Tb3  1  0.86365000  0.86365000  0.12500000  1.0 2.0402046425
Tb  Tb4  1  0.13635000  0.13635000  0.62500000  1.0 2.0402046425
H  H1  1  0.91721000  0.45349000  0.33519000  1.0 0.218530616
H  H2  1  0.08279000  0.54651000  0.83519000  1.0 0.218530616
H  H3  1  0.54651000  0.91721000  0.08519000  1.0 0.218530616
H  H4  1  0.45349000  0.08279000  0.58519000  1.0 0.218530616
H  H5  1  0.08279000  0.45349000  0.66481000  1.0 0.218530616
H  H6  1  0.91721000  0.54651000  0.16481000  1.0 0.218530616
H  H7  1  0.45349000  0.91721000  0.91481000  1.0 0.218530616
H  H8  1  0.54651000  0.08279000  0.41481000  1.0 0.218530616
H  H9  1  0.90165000  0.58482000  0.28967000  1.0 0.2326153202
H  H10  1  0.09835000  0.41518000  0.78967000  1.0 0.2326153202
H  H11  1  0.41518000  0.90165000  0.03967000  1.0 0.2326153202
H  H12  1  0.58482000  0.09835000  0.53967000  1.0 0.2326153202
H  H13  1  0.09835000  0.58482000  0.71033000  1.0 0.2326153202
H  H14  1  0.90165000  0.41518000  0.21033000  1.0 0.2326153202
H  H15  1  0.58482000  0.90165000  0.96033000  1.0 0.2326153202
H  H16  1  0.41518000  0.09835000  0.46033000  1.0 0.2326153202
H  H17  1  0.00000000  0.88349000  0.50000000  1.0 0.1281064732
H  H18  1  0.00000000  0.11651000  0.00000000  1.0 0.1281064732
H  H19  1  0.11651000  0.00000000  0.25000000  1.0 0.1281064732
H  H20  1  0.88349000  0.00000000  0.75000000  1.0 0.1281064732
H  H21  1  0.94187000  0.55071000  0.36577000  1.0 0.071392013
H  H22  1  0.05813000  0.44929000  0.86577000  1.0 0.071392013
H  H23  1  0.44929000  0.94187000  0.11577000  1.0 0.071392013
H  H24  1  0.55071000  0.05813000  0.61577000  1.0 0.071392013
H  H25  1  0.05813000  0.55071000  0.63423000  1.0 0.071392013
H  H26  1  0.94187000  0.44929000  0.13423000  1.0 0.071392013
H  H27  1  0.55071000  0.94187000  0.88423000  1.0 0.071392013
H  H28  1  0.44929000  0.05813000  0.38423000  1.0 0.071392013
C  C1  1  0.92520000  0.80710000  0.33610000  1.0 0.6146005972
C  C2  1  0.07480000  0.19290000  0.83610000  1.0 0.6146005972
C  C3  1  0.19290000  0.92520000  0.08610000  1.0 0.6146005972
C  C4  1  0.80710000  0.07480000  0.58610000  1.0 0.6146005972
C  C5  1  0.07480000  0.80710000  0.66390000  1.0 0.6146005972
C  C6  1  0.92520000  0.19290000  0.16390000  1.0 0.6146005972
C  C7  1  0.80710000  0.92520000  0.91390000  1.0 0.6146005972
C  C8  1  0.19290000  0.07480000  0.41390000  1.0 0.6146005972
C  C9  1  0.00000000  0.79420000  0.50000000  1.0 -0.1299935335
C  C10  1  0.00000000  0.20580000  0.00000000  1.0 -0.1299935335
C  C11  1  0.20580000  0.00000000  0.25000000  1.0 -0.1299935335
C  C12  1  0.79420000  0.00000000  0.75000000  1.0 -0.1299935335
C  C13  1  0.96300000  0.73230000  0.41960000  1.0 -0.1194573788
C  C14  1  0.03700000  0.26770000  0.91960000  1.0 -0.1194573788
C  C15  1  0.26770000  0.96300000  0.16960000  1.0 -0.1194573788
C  C16  1  0.73230000  0.03700000  0.66960000  1.0 -0.1194573788
C  C17  1  0.03700000  0.73230000  0.58040000  1.0 -0.1194573788
C  C18  1  0.96300000  0.26770000  0.08040000  1.0 -0.1194573788
C  C19  1  0.73230000  0.96300000  0.83040000  1.0 -0.1194573788
C  C20  1  0.26770000  0.03700000  0.33040000  1.0 -0.1194573788
C  C21  1  0.96450000  0.59560000  0.41950000  1.0 0.1535040943
C  C22  1  0.03550000  0.40440000  0.91950000  1.0 0.1535040943
C  C23  1  0.40440000  0.96450000  0.16950000  1.0 0.1535040943
C  C24  1  0.59560000  0.03550000  0.66950000  1.0 0.1535040943
C  C25  1  0.03550000  0.59560000  0.58050000  1.0 0.1535040943
C  C26  1  0.96450000  0.40440000  0.08050000  1.0 0.1535040943
C  C27  1  0.59560000  0.96450000  0.83050000  1.0 0.1535040943
C  C28  1  0.40440000  0.03550000  0.33050000  1.0 0.1535040943
C  C29  1  0.00000000  0.52930000  0.50000000  1.0 -0.2388519462
C  C30  1  0.00000000  0.47070000  0.00000000  1.0 -0.2345420586
C  C31  1  0.47070000  0.00000000  0.25000000  1.0 -0.2388519462
C  C32  1  0.52930000  0.00000000  0.75000000  1.0 -0.2388519462
C  C33  1  0.00000000  0.38360000  0.50000000  1.0 0.6595600976
C  C34  1  0.00000000  0.61640000  0.00000000  1.0 0.6595600976
C  C35  1  0.61640000  0.00000000  0.25000000  1.0 0.6595600976
C  C36  1  0.38360000  0.00000000  0.75000000  1.0 0.6595600976
N  N1  1  0.92280000  0.53760000  0.33830000  1.0 -0.4467658901
N  N2  1  0.07720000  0.46240000  0.83830000  1.0 -0.4467658901
N  N3  1  0.46240000  0.92280000  0.08830000  1.0 -0.4467658901
N  N4  1  0.53760000  0.07720000  0.58830000  1.0 -0.4467658901
N  N5  1  0.07720000  0.53760000  0.66170000  1.0 -0.4467658901
N  N6  1  0.92280000  0.46240000  0.16170000  1.0 -0.4467658901
N  N7  1  0.53760000  0.92280000  0.91170000  1.0 -0.4467658901
N  N8  1  0.46240000  0.07720000  0.41170000  1.0 -0.4467658901
O  O1  1  0.90340000  0.92030000  0.34170000  1.0 -0.6294038312
O  O2  1  0.09660000  0.07970000  0.84170000  1.0 -0.6294038312
O  O3  1  0.07970000  0.90340000  0.09170000  1.0 -0.6294038312
O  O4  1  0.92030000  0.09660000  0.59170000  1.0 -0.6294038312
O  O5  1  0.09660000  0.92030000  0.65830000  1.0 -0.6294038312
O  O6  1  0.90340000  0.07970000  0.15830000  1.0 -0.6294038312
O  O7  1  0.92030000  0.90340000  0.90830000  1.0 -0.6294038312
O  O8  1  0.07970000  0.09660000  0.40830000  1.0 -0.6294038312
O  O9  1  0.92050000  0.75300000  0.25830000  1.0 -0.6150940077
O  O10  1  0.07950000  0.24700000  0.75830000  1.0 -0.6138314502
O  O11  1  0.24700000  0.92050000  0.00830000  1.0 -0.6150940077
O  O12  1  0.75300000  0.07950000  0.50830000  1.0 -0.6138314502
O  O13  1  0.07950000  0.75300000  0.74170000  1.0 -0.6138314502
O  O14  1  0.92050000  0.24700000  0.24170000  1.0 -0.6138314502
O  O15  1  0.75300000  0.92050000  0.99170000  1.0 -0.6150940077
O  O16  1  0.24700000  0.07950000  0.49170000  1.0 -0.6138314502
O  O17  1  0.93560000  0.32670000  0.43810000  1.0 -0.7107622342
O  O18  1  0.06440000  0.67330000  0.93810000  1.0 -0.7107622342
O  O19  1  0.67330000  0.93560000  0.18810000  1.0 -0.7107622342
O  O20  1  0.32670000  0.06440000  0.68810000  1.0 -0.7107622342
O  O21  1  0.06440000  0.32670000  0.56190000  1.0 -0.7107622342
O  O22  1  0.93560000  0.67330000  0.06190000  1.0 -0.7107622342
O  O23  1  0.32670000  0.93560000  0.81190000  1.0 -0.7107622342
O  O24  1  0.67330000  0.06440000  0.31190000  1.0 -0.7107622342
