# DDEC6 charges by PACMAN v1.1 (https://github.com/mtap-research/PACMAN-charge/)
data_ZISNEW_ASR_pacman
_symmetry_space_group_name_H-M   'P 1'
_cell_length_a   18.48190000
_cell_length_b   18.48190000
_cell_length_c   34.44950000
_cell_angle_alpha   90.00000000
_cell_angle_beta   90.00000000
_cell_angle_gamma   120.00000000
_symmetry_Int_Tables_number   1
_chemical_formula_structural   CuH7C21O4
_chemical_formula_sum   'Cu12 H84 C252 O48'
_cell_volume   10190.76499901
_cell_formula_units_Z   12
loop_
 _symmetry_equiv_pos_site_id
 _symmetry_equiv_pos_as_xyz
  1  'x, y, z'
loop_
 _atom_site_type_symbol
 _atom_site_label
 _atom_site_symmetry_multiplicity
 _atom_site_fract_x
 _atom_site_fract_y
 _atom_site_fract_z
 _atom_site_occupancy
 _atom_site_charge
Cu  Cu1  1  0.47568000  0.95136000  0.03105000  1.0 0.8844549537
Cu  Cu2  1  0.04864000  0.52432000  0.03105000  1.0 0.8844549537
Cu  Cu3  1  0.47568000  0.52432000  0.03105000  1.0 0.8855562943
Cu  Cu4  1  0.52432000  0.04864000  0.53105000  1.0 0.8855562943
Cu  Cu5  1  0.95136000  0.47568000  0.53105000  1.0 0.8855562943
Cu  Cu6  1  0.52432000  0.47568000  0.53105000  1.0 0.8855562943
Cu  Cu7  1  0.95136000  0.47568000  0.96895000  1.0 0.8855562943
Cu  Cu8  1  0.52432000  0.04864000  0.96895000  1.0 0.8855562943
Cu  Cu9  1  0.52432000  0.47568000  0.96895000  1.0 0.8855562943
Cu  Cu10  1  0.04864000  0.52432000  0.46895000  1.0 0.8844549537
Cu  Cu11  1  0.47568000  0.95136000  0.46895000  1.0 0.8844549537
Cu  Cu12  1  0.47568000  0.52432000  0.46895000  1.0 0.8844549537
H  H1  1  0.76840000  0.23160000  0.00700000  1.0 0.154592974
H  H2  1  0.76840000  0.53680000  0.00700000  1.0 0.154592974
H  H3  1  0.46320000  0.23160000  0.00700000  1.0 0.154592974
H  H4  1  0.23160000  0.76840000  0.50700000  1.0 0.154592974
H  H5  1  0.23160000  0.46320000  0.50700000  1.0 0.154592974
H  H6  1  0.53680000  0.76840000  0.50700000  1.0 0.154592974
H  H7  1  0.23160000  0.76840000  0.99300000  1.0 0.154592974
H  H8  1  0.53680000  0.76840000  0.99300000  1.0 0.154592974
H  H9  1  0.23160000  0.46320000  0.99300000  1.0 0.154592974
H  H10  1  0.76840000  0.23160000  0.49300000  1.0 0.154592974
H  H11  1  0.46320000  0.23160000  0.49300000  1.0 0.154592974
H  H12  1  0.76840000  0.53680000  0.49300000  1.0 0.154592974
H  H13  1  0.69800000  0.08550000  0.10140000  1.0 0.1425772687
H  H14  1  0.91450000  0.61250000  0.10140000  1.0 0.1425772687
H  H15  1  0.38750000  0.30200000  0.10140000  1.0 0.1425772687
H  H16  1  0.30200000  0.91450000  0.60140000  1.0 0.1425772687
H  H17  1  0.08550000  0.38750000  0.60140000  1.0 0.1425772687
H  H18  1  0.61250000  0.69800000  0.60140000  1.0 0.1425772687
H  H19  1  0.08550000  0.69800000  0.89860000  1.0 0.1425772687
H  H20  1  0.61250000  0.91450000  0.89860000  1.0 0.1425772687
H  H21  1  0.30200000  0.38750000  0.89860000  1.0 0.1425772687
H  H22  1  0.91450000  0.30200000  0.39860000  1.0 0.1425772687
H  H23  1  0.38750000  0.08550000  0.39860000  1.0 0.1425772687
H  H24  1  0.69800000  0.61250000  0.39860000  1.0 0.1425772687
H  H25  1  0.30200000  0.91450000  0.89860000  1.0 0.1425772687
H  H26  1  0.08550000  0.38750000  0.89860000  1.0 0.1425772687
H  H27  1  0.61250000  0.69800000  0.89860000  1.0 0.1425772687
H  H28  1  0.69800000  0.08550000  0.39860000  1.0 0.1425772687
H  H29  1  0.91450000  0.61250000  0.39860000  1.0 0.1425772687
H  H30  1  0.38750000  0.30200000  0.39860000  1.0 0.1425772687
H  H31  1  0.91450000  0.30200000  0.10140000  1.0 0.1425772687
H  H32  1  0.38750000  0.08550000  0.10140000  1.0 0.1425772687
H  H33  1  0.69800000  0.61250000  0.10140000  1.0 0.1425772687
H  H34  1  0.08550000  0.69800000  0.60140000  1.0 0.1425772687
H  H35  1  0.61250000  0.91450000  0.60140000  1.0 0.1425772687
H  H36  1  0.30200000  0.38750000  0.60140000  1.0 0.1425772687
H  H37  1  0.77600000  0.05250000  0.14540000  1.0 0.1106517678
H  H38  1  0.94750000  0.72350000  0.14540000  1.0 0.1106517678
H  H39  1  0.27650000  0.22400000  0.14540000  1.0 0.1106517678
H  H40  1  0.22400000  0.94750000  0.64540000  1.0 0.1106517678
H  H41  1  0.05250000  0.27650000  0.64540000  1.0 0.1106517678
H  H42  1  0.72350000  0.77600000  0.64540000  1.0 0.1106517678
H  H43  1  0.05250000  0.77600000  0.85460000  1.0 0.1106517678
H  H44  1  0.72350000  0.94750000  0.85460000  1.0 0.1106517678
H  H45  1  0.22400000  0.27650000  0.85460000  1.0 0.1106517678
H  H46  1  0.94750000  0.22400000  0.35460000  1.0 0.1106517678
H  H47  1  0.27650000  0.05250000  0.35460000  1.0 0.1106517678
H  H48  1  0.77600000  0.72350000  0.35460000  1.0 0.1106517678
H  H49  1  0.22400000  0.94750000  0.85460000  1.0 0.1106517678
H  H50  1  0.05250000  0.27650000  0.85460000  1.0 0.1106517678
H  H51  1  0.72350000  0.77600000  0.85460000  1.0 0.1106517678
H  H52  1  0.77600000  0.05250000  0.35460000  1.0 0.1106517678
H  H53  1  0.94750000  0.72350000  0.35460000  1.0 0.1106517678
H  H54  1  0.27650000  0.22400000  0.35460000  1.0 0.1106517678
H  H55  1  0.94750000  0.22400000  0.14540000  1.0 0.1106517678
H  H56  1  0.27650000  0.05250000  0.14540000  1.0 0.1106517678
H  H57  1  0.77600000  0.72350000  0.14540000  1.0 0.1106517678
H  H58  1  0.05250000  0.77600000  0.64540000  1.0 0.1106517678
H  H59  1  0.72350000  0.94750000  0.64540000  1.0 0.1106517678
H  H60  1  0.22400000  0.27650000  0.64540000  1.0 0.1106517678
H  H61  1  0.78680000  0.02700000  0.21240000  1.0 0.1204725956
H  H62  1  0.97300000  0.75980000  0.21240000  1.0 0.1204725956
H  H63  1  0.24020000  0.21320000  0.21240000  1.0 0.1204725956
H  H64  1  0.21320000  0.97300000  0.71240000  1.0 0.1204725956
H  H65  1  0.02700000  0.24020000  0.71240000  1.0 0.1204725956
H  H66  1  0.75980000  0.78680000  0.71240000  1.0 0.1204725956
H  H67  1  0.02700000  0.78680000  0.78760000  1.0 0.1204725956
H  H68  1  0.75980000  0.97300000  0.78760000  1.0 0.1204725956
H  H69  1  0.21320000  0.24020000  0.78760000  1.0 0.1204725956
H  H70  1  0.97300000  0.21320000  0.28760000  1.0 0.1204725956
H  H71  1  0.24020000  0.02700000  0.28760000  1.0 0.1204725956
H  H72  1  0.78680000  0.75980000  0.28760000  1.0 0.1204725956
H  H73  1  0.21320000  0.97300000  0.78760000  1.0 0.1204725956
H  H74  1  0.02700000  0.24020000  0.78760000  1.0 0.1204725956
H  H75  1  0.75980000  0.78680000  0.78760000  1.0 0.1204725956
H  H76  1  0.78680000  0.02700000  0.28760000  1.0 0.1204725956
H  H77  1  0.97300000  0.75980000  0.28760000  1.0 0.1204725956
H  H78  1  0.24020000  0.21320000  0.28760000  1.0 0.1204725956
H  H79  1  0.97300000  0.21320000  0.21240000  1.0 0.1204725956
H  H80  1  0.24020000  0.02700000  0.21240000  1.0 0.1204725956
H  H81  1  0.78680000  0.75980000  0.21240000  1.0 0.1204725956
H  H82  1  0.02700000  0.78680000  0.71240000  1.0 0.1204725956
H  H83  1  0.75980000  0.97300000  0.71240000  1.0 0.1204725956
H  H84  1  0.21320000  0.24020000  0.71240000  1.0 0.1204725956
C  C1  1  0.63950000  0.09060000  0.03153000  1.0 0.593968397
C  C2  1  0.90940000  0.54890000  0.03153000  1.0 0.593968397
C  C3  1  0.45110000  0.36050000  0.03153000  1.0 0.593968397
C  C4  1  0.36050000  0.90940000  0.53153000  1.0 0.593968397
C  C5  1  0.09060000  0.45110000  0.53153000  1.0 0.593968397
C  C6  1  0.54890000  0.63950000  0.53153000  1.0 0.593968397
C  C7  1  0.09060000  0.63950000  0.96847000  1.0 0.593968397
C  C8  1  0.54890000  0.90940000  0.96847000  1.0 0.593968397
C  C9  1  0.36050000  0.45110000  0.96847000  1.0 0.593968397
C  C10  1  0.90940000  0.36050000  0.46847000  1.0 0.593968397
C  C11  1  0.45110000  0.09060000  0.46847000  1.0 0.593968397
C  C12  1  0.63950000  0.54890000  0.46847000  1.0 0.593968397
C  C13  1  0.36050000  0.90940000  0.96847000  1.0 0.593968397
C  C14  1  0.09060000  0.45110000  0.96847000  1.0 0.593968397
C  C15  1  0.54890000  0.63950000  0.96847000  1.0 0.593968397
C  C16  1  0.63950000  0.09060000  0.46847000  1.0 0.593968397
C  C17  1  0.90940000  0.54890000  0.46847000  1.0 0.593968397
C  C18  1  0.45110000  0.36050000  0.46847000  1.0 0.593968397
C  C19  1  0.90940000  0.36050000  0.03153000  1.0 0.593968397
C  C20  1  0.45110000  0.09060000  0.03153000  1.0 0.593968397
C  C21  1  0.63950000  0.54890000  0.03153000  1.0 0.593968397
C  C22  1  0.09060000  0.63950000  0.53153000  1.0 0.593968397
C  C23  1  0.54890000  0.90940000  0.53153000  1.0 0.593968397
C  C24  1  0.36050000  0.45110000  0.53153000  1.0 0.593968397
C  C25  1  0.72090000  0.14910000  0.05100000  1.0 -0.0034459086
C  C26  1  0.85090000  0.57180000  0.05100000  1.0 -0.0034459086
C  C27  1  0.42820000  0.27910000  0.05100000  1.0 -0.0034459086
C  C28  1  0.27910000  0.85090000  0.55100000  1.0 -0.0034459086
C  C29  1  0.14910000  0.42820000  0.55100000  1.0 -0.0034459086
C  C30  1  0.57180000  0.72090000  0.55100000  1.0 -0.0034459086
C  C31  1  0.14910000  0.72090000  0.94900000  1.0 -0.0034459086
C  C32  1  0.57180000  0.85090000  0.94900000  1.0 -0.0034459086
C  C33  1  0.27910000  0.42820000  0.94900000  1.0 -0.0034459086
C  C34  1  0.85090000  0.27910000  0.44900000  1.0 -0.0034459086
C  C35  1  0.42820000  0.14910000  0.44900000  1.0 -0.0034459086
C  C36  1  0.72090000  0.57180000  0.44900000  1.0 -0.0034459086
C  C37  1  0.27910000  0.85090000  0.94900000  1.0 -0.0034459086
C  C38  1  0.14910000  0.42820000  0.94900000  1.0 -0.0034459086
C  C39  1  0.57180000  0.72090000  0.94900000  1.0 -0.0034459086
C  C40  1  0.72090000  0.14910000  0.44900000  1.0 -0.0034459086
C  C41  1  0.85090000  0.57180000  0.44900000  1.0 -0.0034459086
C  C42  1  0.42820000  0.27910000  0.44900000  1.0 -0.0034459086
C  C43  1  0.85090000  0.27910000  0.05100000  1.0 -0.0034459086
C  C44  1  0.42820000  0.14910000  0.05100000  1.0 -0.0034459086
C  C45  1  0.72090000  0.57180000  0.05100000  1.0 -0.0034459086
C  C46  1  0.14910000  0.72090000  0.55100000  1.0 -0.0034459086
C  C47  1  0.57180000  0.85090000  0.55100000  1.0 -0.0034459086
C  C48  1  0.27910000  0.42820000  0.55100000  1.0 -0.0034459086
C  C49  1  0.77847000  0.22153000  0.03237000  1.0 -0.1007625449
C  C50  1  0.77847000  0.55694000  0.03237000  1.0 -0.1007625449
C  C51  1  0.44306000  0.22153000  0.03237000  1.0 -0.1007625449
C  C52  1  0.22153000  0.77847000  0.53237000  1.0 -0.1007625449
C  C53  1  0.22153000  0.44306000  0.53237000  1.0 -0.1007625449
C  C54  1  0.55694000  0.77847000  0.53237000  1.0 -0.1007625449
C  C55  1  0.22153000  0.77847000  0.96763000  1.0 -0.1007625449
C  C56  1  0.55694000  0.77847000  0.96763000  1.0 -0.1007625449
C  C57  1  0.22153000  0.44306000  0.96763000  1.0 -0.1007625449
C  C58  1  0.77847000  0.22153000  0.46763000  1.0 -0.1007625449
C  C59  1  0.44306000  0.22153000  0.46763000  1.0 -0.1007625449
C  C60  1  0.77847000  0.55694000  0.46763000  1.0 -0.1007625449
C  C61  1  0.73640000  0.13430000  0.08877000  1.0 -0.1390887365
C  C62  1  0.86570000  0.60210000  0.08877000  1.0 -0.1390887365
C  C63  1  0.39790000  0.26360000  0.08877000  1.0 -0.1390887365
C  C64  1  0.26360000  0.86570000  0.58877000  1.0 -0.1390887365
C  C65  1  0.13430000  0.39790000  0.58877000  1.0 -0.1390887365
C  C66  1  0.60210000  0.73640000  0.58877000  1.0 -0.1390887365
C  C67  1  0.13430000  0.73640000  0.91123000  1.0 -0.1390887365
C  C68  1  0.60210000  0.86570000  0.91123000  1.0 -0.1390887365
C  C69  1  0.26360000  0.39790000  0.91123000  1.0 -0.1390887365
C  C70  1  0.86570000  0.26360000  0.41123000  1.0 -0.1390887365
C  C71  1  0.39790000  0.13430000  0.41123000  1.0 -0.1390887365
C  C72  1  0.73640000  0.60210000  0.41123000  1.0 -0.1390887365
C  C73  1  0.26360000  0.86570000  0.91123000  1.0 -0.1390887365
C  C74  1  0.13430000  0.39790000  0.91123000  1.0 -0.1390887365
C  C75  1  0.60210000  0.73640000  0.91123000  1.0 -0.1390887365
C  C76  1  0.73640000  0.13430000  0.41123000  1.0 -0.1390887365
C  C77  1  0.86570000  0.60210000  0.41123000  1.0 -0.1390887365
C  C78  1  0.39790000  0.26360000  0.41123000  1.0 -0.1390887365
C  C79  1  0.86570000  0.26360000  0.08877000  1.0 -0.1390887365
C  C80  1  0.39790000  0.13430000  0.08877000  1.0 -0.1390887365
C  C81  1  0.73640000  0.60210000  0.08877000  1.0 -0.1390887365
C  C82  1  0.13430000  0.73640000  0.58877000  1.0 -0.1390887365
C  C83  1  0.60210000  0.86570000  0.58877000  1.0 -0.1390887365
C  C84  1  0.26360000  0.39790000  0.58877000  1.0 -0.1390887365
C  C85  1  0.80850000  0.19150000  0.10784000  1.0 0.0807569293
C  C86  1  0.80850000  0.61700000  0.10784000  1.0 0.0807569293
C  C87  1  0.38300000  0.19150000  0.10784000  1.0 0.0807569293
C  C88  1  0.19150000  0.80850000  0.60784000  1.0 0.0807569293
C  C89  1  0.19150000  0.38300000  0.60784000  1.0 0.0807569293
C  C90  1  0.61700000  0.80850000  0.60784000  1.0 0.0807569293
C  C91  1  0.19150000  0.80850000  0.89216000  1.0 0.0807569293
C  C92  1  0.61700000  0.80850000  0.89216000  1.0 0.0807569293
C  C93  1  0.19150000  0.38300000  0.89216000  1.0 0.0807569293
C  C94  1  0.80850000  0.19150000  0.39216000  1.0 0.0807569293
C  C95  1  0.38300000  0.19150000  0.39216000  1.0 0.0807569293
C  C96  1  0.80850000  0.61700000  0.39216000  1.0 0.0807569293
C  C97  1  0.82070000  0.17930000  0.15062000  1.0 0.0295592728
C  C98  1  0.82070000  0.64140000  0.15062000  1.0 0.0406530816
C  C99  1  0.35860000  0.17930000  0.15062000  1.0 0.0295592728
C  C100  1  0.17930000  0.82070000  0.65062000  1.0 0.0406530816
C  C101  1  0.17930000  0.35860000  0.65062000  1.0 0.0295592728
C  C102  1  0.64140000  0.82070000  0.65062000  1.0 0.0406530816
C  C103  1  0.17930000  0.82070000  0.84938000  1.0 0.0295592728
C  C104  1  0.64140000  0.82070000  0.84938000  1.0 0.0295592728
C  C105  1  0.17930000  0.35860000  0.84938000  1.0 0.0295592728
C  C106  1  0.82070000  0.17930000  0.34938000  1.0 0.0295592728
C  C107  1  0.35860000  0.17930000  0.34938000  1.0 0.0295592728
C  C108  1  0.82070000  0.64140000  0.34938000  1.0 0.0406530816
C  C109  1  0.79630000  0.09600000  0.16330000  1.0 -0.1007625449
C  C110  1  0.90400000  0.70030000  0.16330000  1.0 -0.1007625449
C  C111  1  0.29970000  0.20370000  0.16330000  1.0 -0.1007625449
C  C112  1  0.20370000  0.90400000  0.66330000  1.0 -0.1007625449
C  C113  1  0.09600000  0.29970000  0.66330000  1.0 -0.1007625449
C  C114  1  0.70030000  0.79630000  0.66330000  1.0 -0.1007625449
C  C115  1  0.09600000  0.79630000  0.83670000  1.0 -0.1007625449
C  C116  1  0.70030000  0.90400000  0.83670000  1.0 -0.1007625449
C  C117  1  0.20370000  0.29970000  0.83670000  1.0 -0.1007625449
C  C118  1  0.90400000  0.20370000  0.33670000  1.0 -0.1007625449
C  C119  1  0.29970000  0.09600000  0.33670000  1.0 -0.1007625449
C  C120  1  0.79630000  0.70030000  0.33670000  1.0 -0.1007625449
C  C121  1  0.20370000  0.90400000  0.83670000  1.0 -0.1007625449
C  C122  1  0.09600000  0.29970000  0.83670000  1.0 -0.1007625449
C  C123  1  0.70030000  0.79630000  0.83670000  1.0 -0.1007625449
C  C124  1  0.79630000  0.09600000  0.33670000  1.0 -0.1007625449
C  C125  1  0.90400000  0.70030000  0.33670000  1.0 -0.1007625449
C  C126  1  0.29970000  0.20370000  0.33670000  1.0 -0.1007625449
C  C127  1  0.90400000  0.20370000  0.16330000  1.0 -0.1007625449
C  C128  1  0.29970000  0.09600000  0.16330000  1.0 -0.1007625449
C  C129  1  0.79630000  0.70030000  0.16330000  1.0 -0.1007625449
C  C130  1  0.09600000  0.79630000  0.66330000  1.0 -0.1007625449
C  C131  1  0.70030000  0.90400000  0.66330000  1.0 -0.1007625449
C  C132  1  0.20370000  0.29970000  0.66330000  1.0 -0.1007625449
C  C133  1  0.83810000  0.24410000  0.17620000  1.0 0.0295592728
C  C134  1  0.75590000  0.59400000  0.17620000  1.0 0.0295592728
C  C135  1  0.40600000  0.16190000  0.17620000  1.0 0.0295592728
C  C136  1  0.16190000  0.75590000  0.67620000  1.0 0.0295592728
C  C137  1  0.24410000  0.40600000  0.67620000  1.0 0.0295592728
C  C138  1  0.59400000  0.83810000  0.67620000  1.0 0.0295592728
C  C139  1  0.24410000  0.83810000  0.82380000  1.0 0.0295592728
C  C140  1  0.59400000  0.75590000  0.82380000  1.0 0.0295592728
C  C141  1  0.16190000  0.40600000  0.82380000  1.0 0.0295592728
C  C142  1  0.75590000  0.16190000  0.32380000  1.0 0.0295592728
C  C143  1  0.40600000  0.24410000  0.32380000  1.0 0.0295592728
C  C144  1  0.83810000  0.59400000  0.32380000  1.0 0.0295592728
C  C145  1  0.16190000  0.75590000  0.82380000  1.0 0.0295592728
C  C146  1  0.24410000  0.40600000  0.82380000  1.0 0.0295592728
C  C147  1  0.59400000  0.83810000  0.82380000  1.0 0.0295592728
C  C148  1  0.83810000  0.24410000  0.32380000  1.0 0.0295592728
C  C149  1  0.75590000  0.59400000  0.32380000  1.0 0.0295592728
C  C150  1  0.40600000  0.16190000  0.32380000  1.0 0.0295592728
C  C151  1  0.75590000  0.16190000  0.17620000  1.0 0.0295592728
C  C152  1  0.40600000  0.24410000  0.17620000  1.0 0.0295592728
C  C153  1  0.83810000  0.59400000  0.17620000  1.0 0.0295592728
C  C154  1  0.24410000  0.83810000  0.67620000  1.0 0.0295592728
C  C155  1  0.59400000  0.75590000  0.67620000  1.0 0.0295592728
C  C156  1  0.16190000  0.40600000  0.67620000  1.0 0.0295592728
C  C157  1  0.80310000  0.07990000  0.20270000  1.0 -0.1390887365
C  C158  1  0.92010000  0.72320000  0.20270000  1.0 -0.1478509598
C  C159  1  0.27680000  0.19690000  0.20270000  1.0 -0.1478509598
C  C160  1  0.19690000  0.92010000  0.70270000  1.0 -0.1478509598
C  C161  1  0.07990000  0.27680000  0.70270000  1.0 -0.1478509598
C  C162  1  0.72320000  0.80310000  0.70270000  1.0 -0.1478509598
C  C163  1  0.07990000  0.80310000  0.79730000  1.0 -0.1478509598
C  C164  1  0.72320000  0.92010000  0.79730000  1.0 -0.1478509598
C  C165  1  0.19690000  0.27680000  0.79730000  1.0 -0.1478509598
C  C166  1  0.92010000  0.19690000  0.29730000  1.0 -0.1390887365
C  C167  1  0.27680000  0.07990000  0.29730000  1.0 -0.1478509598
C  C168  1  0.80310000  0.72320000  0.29730000  1.0 -0.1478509598
C  C169  1  0.19690000  0.92010000  0.79730000  1.0 -0.1478509598
C  C170  1  0.07990000  0.27680000  0.79730000  1.0 -0.1478509598
C  C171  1  0.72320000  0.80310000  0.79730000  1.0 -0.1390887365
C  C172  1  0.80310000  0.07990000  0.29730000  1.0 -0.1390887365
C  C173  1  0.92010000  0.72320000  0.29730000  1.0 -0.1478509598
C  C174  1  0.27680000  0.19690000  0.29730000  1.0 -0.1478509598
C  C175  1  0.92010000  0.19690000  0.20270000  1.0 -0.1390887365
C  C176  1  0.27680000  0.07990000  0.20270000  1.0 -0.1478509598
C  C177  1  0.80310000  0.72320000  0.20270000  1.0 -0.1478509598
C  C178  1  0.07990000  0.80310000  0.70270000  1.0 -0.1478509598
C  C179  1  0.72320000  0.92010000  0.70270000  1.0 -0.1478509598
C  C180  1  0.19690000  0.27680000  0.70270000  1.0 -0.1478509598
C  C181  1  0.83940000  0.22200000  0.21710000  1.0 0.0207490376
C  C182  1  0.77800000  0.61740000  0.21710000  1.0 0.0207490376
C  C183  1  0.38260000  0.16060000  0.21710000  1.0 0.0207490376
C  C184  1  0.16060000  0.77800000  0.71710000  1.0 0.0207490376
C  C185  1  0.22200000  0.38260000  0.71710000  1.0 0.0207490376
C  C186  1  0.61740000  0.83940000  0.71710000  1.0 0.0207490376
C  C187  1  0.22200000  0.83940000  0.78290000  1.0 0.0207490376
C  C188  1  0.61740000  0.77800000  0.78290000  1.0 0.0207490376
C  C189  1  0.16060000  0.38260000  0.78290000  1.0 0.0207490376
C  C190  1  0.77800000  0.16060000  0.28290000  1.0 0.0207490376
C  C191  1  0.38260000  0.22200000  0.28290000  1.0 0.0207490376
C  C192  1  0.83940000  0.61740000  0.28290000  1.0 0.0207490376
C  C193  1  0.16060000  0.77800000  0.78290000  1.0 0.0207490376
C  C194  1  0.22200000  0.38260000  0.78290000  1.0 0.0207490376
C  C195  1  0.61740000  0.83940000  0.78290000  1.0 0.0207490376
C  C196  1  0.83940000  0.22200000  0.28290000  1.0 0.0207490376
C  C197  1  0.77800000  0.61740000  0.28290000  1.0 0.0207490376
C  C198  1  0.38260000  0.16060000  0.28290000  1.0 0.0207490376
C  C199  1  0.77800000  0.16060000  0.21710000  1.0 0.0207490376
C  C200  1  0.38260000  0.22200000  0.21710000  1.0 0.0207490376
C  C201  1  0.83940000  0.61740000  0.21710000  1.0 0.0207490376
C  C202  1  0.22200000  0.83940000  0.71710000  1.0 0.0207490376
C  C203  1  0.61740000  0.77800000  0.71710000  1.0 0.0207490376
C  C204  1  0.16060000  0.38260000  0.71710000  1.0 0.0207490376
C  C205  1  0.84050000  0.15950000  0.22820000  1.0 0.0406530816
C  C206  1  0.84050000  0.68100000  0.22820000  1.0 0.04530508
C  C207  1  0.31900000  0.15950000  0.22820000  1.0 0.0406530816
C  C208  1  0.15950000  0.84050000  0.72820000  1.0 0.04530508
C  C209  1  0.15950000  0.31900000  0.72820000  1.0 0.04530508
C  C210  1  0.68100000  0.84050000  0.72820000  1.0 0.04530508
C  C211  1  0.15950000  0.84050000  0.77180000  1.0 0.04530508
C  C212  1  0.68100000  0.84050000  0.77180000  1.0 0.04530508
C  C213  1  0.15950000  0.31900000  0.77180000  1.0 0.04530508
C  C214  1  0.84050000  0.15950000  0.27180000  1.0 0.0406530816
C  C215  1  0.31900000  0.15950000  0.27180000  1.0 0.0406530816
C  C216  1  0.84050000  0.68100000  0.27180000  1.0 0.04530508
C  C217  1  0.85080000  0.28480000  0.25000000  1.0 0.1274484129
C  C218  1  0.71520000  0.56600000  0.25000000  1.0 0.1274484129
C  C219  1  0.43400000  0.14920000  0.25000000  1.0 0.1274484129
C  C220  1  0.14920000  0.71520000  0.75000000  1.0 0.1274484129
C  C221  1  0.28480000  0.43400000  0.75000000  1.0 0.1274484129
C  C222  1  0.56600000  0.85080000  0.75000000  1.0 0.1274484129
C  C223  1  0.28480000  0.85080000  0.75000000  1.0 0.1274484129
C  C224  1  0.56600000  0.71520000  0.75000000  1.0 0.1274484129
C  C225  1  0.14920000  0.43400000  0.75000000  1.0 0.1274484129
C  C226  1  0.71520000  0.14920000  0.25000000  1.0 0.1274484129
C  C227  1  0.43400000  0.28480000  0.25000000  1.0 0.1274484129
C  C228  1  0.85080000  0.56600000  0.25000000  1.0 0.1274484129
C  C229  1  0.93980000  0.35970000  0.25000000  1.0 -0.3170356869
C  C230  1  0.64030000  0.58010000  0.25000000  1.0 -0.312846146
C  C231  1  0.41990000  0.06020000  0.25000000  1.0 -0.312846146
C  C232  1  0.06020000  0.64030000  0.75000000  1.0 -0.3170356869
C  C233  1  0.35970000  0.41990000  0.75000000  1.0 -0.3170356869
C  C234  1  0.58010000  0.93980000  0.75000000  1.0 -0.312846146
C  C235  1  0.35970000  0.93980000  0.75000000  1.0 -0.312846146
C  C236  1  0.58010000  0.64030000  0.75000000  1.0 -0.312846146
C  C237  1  0.06020000  0.41990000  0.75000000  1.0 -0.312846146
C  C238  1  0.64030000  0.06020000  0.25000000  1.0 -0.3170356869
C  C239  1  0.41990000  0.35970000  0.25000000  1.0 -0.3170356869
C  C240  1  0.93980000  0.58010000  0.25000000  1.0 -0.3170356869
C  C241  1  0.77820000  0.29960000  0.25000000  1.0 -0.1171650012
C  C242  1  0.70040000  0.47860000  0.25000000  1.0 -0.1171650012
C  C243  1  0.52140000  0.22180000  0.25000000  1.0 -0.1171650012
C  C244  1  0.22180000  0.70040000  0.75000000  1.0 -0.1171650012
C  C245  1  0.29960000  0.52140000  0.75000000  1.0 -0.1171650012
C  C246  1  0.47860000  0.77820000  0.75000000  1.0 -0.1171650012
C  C247  1  0.29960000  0.77820000  0.75000000  1.0 -0.1171650012
C  C248  1  0.47860000  0.70040000  0.75000000  1.0 -0.1171650012
C  C249  1  0.22180000  0.52140000  0.75000000  1.0 -0.1171650012
C  C250  1  0.70040000  0.22180000  0.25000000  1.0 -0.1171650012
C  C251  1  0.52140000  0.29960000  0.25000000  1.0 -0.1171650012
C  C252  1  0.77820000  0.47860000  0.25000000  1.0 -0.1171650012
O  O1  1  0.58751000  0.02745000  0.05077000  1.0 -0.5123375462
O  O2  1  0.97255000  0.56006000  0.05077000  1.0 -0.5123375462
O  O3  1  0.43994000  0.41249000  0.05077000  1.0 -0.5123375462
O  O4  1  0.41249000  0.97255000  0.55077000  1.0 -0.5123375462
O  O5  1  0.02745000  0.43994000  0.55077000  1.0 -0.5123375462
O  O6  1  0.56006000  0.58751000  0.55077000  1.0 -0.5123375462
O  O7  1  0.02745000  0.58751000  0.94923000  1.0 -0.5123375462
O  O8  1  0.56006000  0.97255000  0.94923000  1.0 -0.5123375462
O  O9  1  0.41249000  0.43994000  0.94923000  1.0 -0.5123375462
O  O10  1  0.97255000  0.41249000  0.44923000  1.0 -0.5123375462
O  O11  1  0.43994000  0.02745000  0.44923000  1.0 -0.5123375462
O  O12  1  0.58751000  0.56006000  0.44923000  1.0 -0.5123375462
O  O13  1  0.41249000  0.97255000  0.94923000  1.0 -0.5123375462
O  O14  1  0.02745000  0.43994000  0.94923000  1.0 -0.5123375462
O  O15  1  0.56006000  0.58751000  0.94923000  1.0 -0.5123375462
O  O16  1  0.58751000  0.02745000  0.44923000  1.0 -0.5123375462
O  O17  1  0.97255000  0.56006000  0.44923000  1.0 -0.5123375462
O  O18  1  0.43994000  0.41249000  0.44923000  1.0 -0.5123375462
O  O19  1  0.97255000  0.41249000  0.05077000  1.0 -0.5123375462
O  O20  1  0.43994000  0.02745000  0.05077000  1.0 -0.5123375462
O  O21  1  0.58751000  0.56006000  0.05077000  1.0 -0.5123375462
O  O22  1  0.02745000  0.58751000  0.55077000  1.0 -0.5123375462
O  O23  1  0.56006000  0.97255000  0.55077000  1.0 -0.5123375462
O  O24  1  0.41249000  0.43994000  0.55077000  1.0 -0.5123375462
O  O25  1  0.62863000  0.10934000  0.99761000  1.0 -0.5123375462
O  O26  1  0.89066000  0.51929000  0.99761000  1.0 -0.5123375462
O  O27  1  0.48071000  0.37137000  0.99761000  1.0 -0.5123375462
O  O28  1  0.37137000  0.89066000  0.49761000  1.0 -0.5123375462
O  O29  1  0.10934000  0.48071000  0.49761000  1.0 -0.5123375462
O  O30  1  0.51929000  0.62863000  0.49761000  1.0 -0.5123375462
O  O31  1  0.10934000  0.62863000  0.00239000  1.0 -0.5123375462
O  O32  1  0.51929000  0.89066000  0.00239000  1.0 -0.5123375462
O  O33  1  0.37137000  0.48071000  0.00239000  1.0 -0.5123375462
O  O34  1  0.89066000  0.37137000  0.50239000  1.0 -0.5123375462
O  O35  1  0.48071000  0.10934000  0.50239000  1.0 -0.5123375462
O  O36  1  0.62863000  0.51929000  0.50239000  1.0 -0.5123375462
O  O37  1  0.37137000  0.89066000  0.00239000  1.0 -0.5123375462
O  O38  1  0.10934000  0.48071000  0.00239000  1.0 -0.5123375462
O  O39  1  0.51929000  0.62863000  0.00239000  1.0 -0.5123375462
O  O40  1  0.62863000  0.10934000  0.50239000  1.0 -0.5123375462
O  O41  1  0.89066000  0.51929000  0.50239000  1.0 -0.5123375462
O  O42  1  0.48071000  0.37137000  0.50239000  1.0 -0.5123375462
O  O43  1  0.89066000  0.37137000  0.99761000  1.0 -0.5123375462
O  O44  1  0.48071000  0.10934000  0.99761000  1.0 -0.5123375462
O  O45  1  0.62863000  0.51929000  0.99761000  1.0 -0.5123375462
O  O46  1  0.10934000  0.62863000  0.49761000  1.0 -0.5123375462
O  O47  1  0.51929000  0.89066000  0.49761000  1.0 -0.5123375462
O  O48  1  0.37137000  0.48071000  0.49761000  1.0 -0.5123375462
