# DDEC6 charges by PACMAN v1.1 (https://github.com/mtap-research/PACMAN-charge/)
data_ZISXOQ_ASR_pacman
_symmetry_space_group_name_H-M   'P 1'
_cell_length_a   16.74600000
_cell_length_b   16.74600000
_cell_length_c   12.58670000
_cell_angle_alpha   68.31220000
_cell_angle_beta   111.68800000
_cell_angle_gamma   64.95090000
_symmetry_Int_Tables_number   1
_chemical_formula_structural   Cu2H64C77(IN2)2
_chemical_formula_sum   'Cu4 H128 C154 I4 N8'
_cell_volume   2319.82191986
_cell_formula_units_Z   2
loop_
 _symmetry_equiv_pos_site_id
 _symmetry_equiv_pos_as_xyz
  1  'x, y, z'
loop_
 _atom_site_type_symbol
 _atom_site_label
 _atom_site_symmetry_multiplicity
 _atom_site_fract_x
 _atom_site_fract_y
 _atom_site_fract_z
 _atom_site_occupancy
 _atom_site_charge
Cu  Cu1  1  0.54592000  0.54592000  0.00000000  1.0 0.1698041148
Cu  Cu2  1  0.45408000  0.45408000  0.00000000  1.0 0.1698041148
Cu  Cu3  1  0.07066000  0.92934000  0.00010000  1.0 0.1609823815
Cu  Cu4  1  0.92934000  0.07066000  0.99990000  1.0 0.1609823815
H  H1  1  0.17370000  0.54690000  0.21640000  1.0 0.0807897724
H  H2  1  0.54690000  0.17370000  0.78360000  1.0 0.0807897724
H  H3  1  0.82630000  0.45310000  0.78360000  1.0 0.0807897724
H  H4  1  0.45310000  0.82630000  0.21640000  1.0 0.0807897724
H  H5  1  0.14210000  0.70070000  0.20780000  1.0 0.0392356317
H  H6  1  0.70070000  0.14210000  0.79220000  1.0 0.0392356317
H  H7  1  0.85790000  0.29930000  0.79220000  1.0 0.0392356317
H  H8  1  0.29930000  0.85790000  0.20780000  1.0 0.0392356317
H  H9  1  0.94090000  0.89710000  0.79850000  1.0 0.0392356317
H  H10  1  0.89710000  0.94090000  0.20150000  1.0 0.0392356317
H  H11  1  0.05910000  0.10290000  0.20150000  1.0 0.0392356317
H  H12  1  0.10290000  0.05910000  0.79850000  1.0 0.0392356317
H  H13  1  0.96550000  0.75170000  0.79410000  1.0 0.0676718423
H  H14  1  0.75170000  0.96550000  0.20590000  1.0 0.0676718423
H  H15  1  0.03450000  0.24830000  0.20590000  1.0 0.0676718423
H  H16  1  0.24830000  0.03450000  0.79410000  1.0 0.0676718423
H  H17  1  0.25360000  0.53160000  0.20900000  1.0 0.0676718423
H  H18  1  0.53160000  0.25360000  0.79100000  1.0 0.0676718423
H  H19  1  0.74640000  0.46840000  0.79100000  1.0 0.0676718423
H  H20  1  0.46840000  0.74640000  0.20900000  1.0 0.0676718423
H  H21  1  0.22200000  0.68280000  0.19910000  1.0 0.0514313261
H  H22  1  0.68280000  0.22200000  0.80090000  1.0 0.0514313261
H  H23  1  0.77800000  0.31720000  0.80090000  1.0 0.0514313261
H  H24  1  0.31720000  0.77800000  0.19910000  1.0 0.0514313261
H  H25  1  0.16950000  0.57250000  0.85860000  1.0 0.0676718423
H  H26  1  0.57250000  0.16950000  0.14140000  1.0 0.0676718423
H  H27  1  0.83050000  0.42750000  0.14140000  1.0 0.0676718423
H  H28  1  0.42750000  0.83050000  0.85860000  1.0 0.0676718423
H  H29  1  0.21700000  0.42420000  0.85520000  1.0 0.0625956928
H  H30  1  0.42420000  0.21700000  0.14480000  1.0 0.0625956928
H  H31  1  0.78300000  0.57580000  0.14480000  1.0 0.0625956928
H  H32  1  0.57580000  0.78300000  0.85520000  1.0 0.0625956928
H  H33  1  0.19450000  0.28550000  0.16870000  1.0 0.0807897724
H  H34  1  0.28550000  0.19450000  0.83130000  1.0 0.0807897724
H  H35  1  0.80550000  0.71450000  0.83130000  1.0 0.0807897724
H  H36  1  0.71450000  0.80550000  0.16870000  1.0 0.0807897724
H  H37  1  0.13860000  0.43880000  0.16680000  1.0 0.1100304103
H  H38  1  0.43880000  0.13860000  0.83320000  1.0 0.1100304103
H  H39  1  0.86140000  0.56120000  0.83320000  1.0 0.1100304103
H  H40  1  0.56120000  0.86140000  0.16680000  1.0 0.1100304103
H  H41  1  0.19990000  0.12370000  0.92260000  1.0 0.0514313261
H  H42  1  0.12370000  0.19990000  0.07740000  1.0 0.0514313261
H  H43  1  0.80010000  0.87630000  0.07740000  1.0 0.0514313261
H  H44  1  0.87630000  0.80010000  0.92260000  1.0 0.0514313261
H  H45  1  0.03370000  0.18650000  0.72770000  1.0 0.0914982925
H  H46  1  0.18650000  0.03370000  0.27230000  1.0 0.0914982925
H  H47  1  0.96630000  0.81350000  0.27230000  1.0 0.0914982925
H  H48  1  0.81350000  0.96630000  0.72770000  1.0 0.0914982925
H  H49  1  0.88660000  0.50700000  0.54930000  1.0 0.1025797947
H  H50  1  0.50700000  0.88660000  0.45070000  1.0 0.1025797947
H  H51  1  0.11340000  0.49300000  0.45070000  1.0 0.1025797947
H  H52  1  0.49300000  0.11340000  0.54930000  1.0 0.1025797947
H  H53  1  0.03970000  0.44950000  0.76410000  1.0 0.0807897724
H  H54  1  0.44950000  0.03970000  0.23590000  1.0 0.0807897724
H  H55  1  0.96030000  0.55050000  0.23590000  1.0 0.0807897724
H  H56  1  0.55050000  0.96030000  0.76410000  1.0 0.0807897724
H  H57  1  0.92100000  0.24720000  0.49380000  1.0 0.1100304103
H  H58  1  0.24720000  0.92100000  0.50620000  1.0 0.1100304103
H  H59  1  0.07900000  0.75280000  0.50620000  1.0 0.1100304103
H  H60  1  0.75280000  0.07900000  0.49380000  1.0 0.1100304103
H  H61  1  0.77380000  0.31880000  0.28590000  1.0 0.0914982925
H  H62  1  0.31880000  0.77380000  0.71410000  1.0 0.0914982925
H  H63  1  0.22620000  0.68120000  0.71410000  1.0 0.0914982925
H  H64  1  0.68120000  0.22620000  0.28590000  1.0 0.0914982925
H  H65  1  0.59110000  0.61810000  0.17540000  1.0 0.0676718423
H  H66  1  0.61810000  0.59110000  0.82460000  1.0 0.0676718423
H  H67  1  0.40890000  0.38190000  0.82460000  1.0 0.0676718423
H  H68  1  0.38190000  0.40890000  0.17540000  1.0 0.0676718423
H  H69  1  0.73660000  0.55060000  0.40740000  1.0 0.0914982925
H  H70  1  0.55060000  0.73660000  0.59260000  1.0 0.0914982925
H  H71  1  0.26340000  0.44940000  0.59260000  1.0 0.0914982925
H  H72  1  0.44940000  0.26340000  0.40740000  1.0 0.0914982925
H  H73  1  0.01210000  0.87930000  0.79570000  1.0 0.0392356317
H  H74  1  0.87930000  0.01210000  0.20430000  1.0 0.0392356317
H  H75  1  0.98790000  0.12070000  0.20430000  1.0 0.0392356317
H  H76  1  0.12070000  0.98790000  0.79570000  1.0 0.0392356317
H  H77  1  0.03380000  0.73700000  0.78820000  1.0 0.0625956928
H  H78  1  0.73700000  0.03380000  0.21180000  1.0 0.0625956928
H  H79  1  0.96620000  0.26300000  0.21180000  1.0 0.0625956928
H  H80  1  0.26300000  0.96620000  0.78820000  1.0 0.0625956928
H  H81  1  0.30810000  0.42750000  0.15170000  1.0 0.0625956928
H  H82  1  0.42750000  0.30810000  0.84830000  1.0 0.0625956928
H  H83  1  0.69190000  0.57250000  0.84830000  1.0 0.0625956928
H  H84  1  0.57250000  0.69190000  0.15170000  1.0 0.0625956928
H  H85  1  0.36170000  0.28050000  0.14440000  1.0 0.0625956928
H  H86  1  0.28050000  0.36170000  0.85560000  1.0 0.0625956928
H  H87  1  0.63830000  0.71950000  0.85560000  1.0 0.0625956928
H  H88  1  0.71950000  0.63830000  0.14440000  1.0 0.0625956928
H  H89  1  0.03130000  0.44290000  0.84560000  1.0 0.0807897724
H  H90  1  0.44290000  0.03130000  0.15440000  1.0 0.0807897724
H  H91  1  0.96870000  0.55710000  0.15440000  1.0 0.0807897724
H  H92  1  0.55710000  0.96870000  0.84560000  1.0 0.0807897724
H  H93  1  0.98810000  0.59170000  0.83830000  1.0 0.1100304103
H  H94  1  0.59170000  0.98810000  0.16170000  1.0 0.1100304103
H  H95  1  0.01190000  0.40830000  0.16170000  1.0 0.1100304103
H  H96  1  0.40830000  0.01190000  0.83830000  1.0 0.1100304103
H  H97  1  0.06620000  0.24320000  0.94140000  1.0 0.0625956928
H  H98  1  0.24320000  0.06620000  0.05860000  1.0 0.0625956928
H  H99  1  0.93380000  0.75680000  0.05860000  1.0 0.0625956928
H  H100  1  0.75680000  0.93380000  0.94140000  1.0 0.0625956928
H  H101  1  0.91670000  0.30410000  0.73320000  1.0 0.0807897724
H  H102  1  0.30410000  0.91670000  0.26680000  1.0 0.0807897724
H  H103  1  0.08330000  0.69590000  0.26680000  1.0 0.0807897724
H  H104  1  0.69590000  0.08330000  0.73320000  1.0 0.0807897724
H  H105  1  0.06010000  0.32650000  0.54510000  1.0 0.1025797947
H  H106  1  0.32650000  0.06010000  0.45490000  1.0 0.1025797947
H  H107  1  0.93990000  0.67350000  0.45490000  1.0 0.1025797947
H  H108  1  0.67350000  0.93990000  0.54510000  1.0 0.1025797947
H  H109  1  0.20880000  0.28120000  0.75750000  1.0 0.0807897724
H  H110  1  0.28120000  0.20880000  0.24250000  1.0 0.0807897724
H  H111  1  0.79120000  0.71880000  0.24250000  1.0 0.0807897724
H  H112  1  0.71880000  0.79120000  0.75750000  1.0 0.0807897724
H  H113  1  0.60300000  0.50180000  0.28520000  1.0 0.0914982925
H  H114  1  0.50180000  0.60300000  0.71480000  1.0 0.0914982925
H  H115  1  0.39700000  0.49820000  0.71480000  1.0 0.0914982925
H  H116  1  0.49820000  0.39700000  0.28520000  1.0 0.0914982925
H  H117  1  0.74260000  0.42940000  0.50040000  1.0 0.1100304103
H  H118  1  0.42940000  0.74260000  0.49960000  1.0 0.1100304103
H  H119  1  0.25740000  0.57060000  0.49960000  1.0 0.1100304103
H  H120  1  0.57060000  0.25740000  0.50040000  1.0 0.1100304103
H  H121  1  0.94880000  0.33060000  0.39790000  1.0 0.0914982925
H  H122  1  0.33060000  0.94880000  0.60210000  1.0 0.0914982925
H  H123  1  0.05120000  0.66940000  0.60210000  1.0 0.0914982925
H  H124  1  0.66940000  0.05120000  0.39790000  1.0 0.0914982925
H  H125  1  0.79050000  0.40430000  0.17300000  1.0 0.0625956928
H  H126  1  0.40430000  0.79050000  0.82700000  1.0 0.0625956928
H  H127  1  0.20950000  0.59570000  0.82700000  1.0 0.0625956928
H  H128  1  0.59570000  0.20950000  0.17300000  1.0 0.0625956928
C  C1  1  0.00460000  0.82160000  0.88400000  1.0 0.0198295671
C  C2  1  0.82160000  0.00460000  0.11600000  1.0 0.0198295671
C  C3  1  0.99540000  0.17840000  0.11600000  1.0 0.0198295671
C  C4  1  0.17840000  0.99540000  0.88400000  1.0 0.0198295671
C  C5  1  0.01920000  0.73480000  0.88040000  1.0 -0.0420511413
C  C6  1  0.73480000  0.01920000  0.11960000  1.0 -0.0420511413
C  C7  1  0.98080000  0.26520000  0.11960000  1.0 -0.0420511413
C  C8  1  0.26520000  0.98080000  0.88040000  1.0 -0.0420511413
C  C9  1  0.11210000  0.62390000  0.00280000  1.0 -0.0037395848
C  C10  1  0.62390000  0.11210000  0.99720000  1.0 -0.0037395848
C  C11  1  0.88790000  0.37610000  0.99720000  1.0 -0.0037395848
C  C12  1  0.37610000  0.88790000  0.00280000  1.0 -0.0037395848
C  C13  1  0.18810000  0.60590000  0.12300000  1.0 -0.0676171433
C  C14  1  0.60590000  0.18810000  0.87700000  1.0 -0.0676171433
C  C15  1  0.81190000  0.39410000  0.87700000  1.0 -0.0676171433
C  C16  1  0.39410000  0.81190000  0.12300000  1.0 -0.0676171433
C  C17  1  0.16700000  0.69760000  0.11600000  1.0 0.0198295671
C  C18  1  0.69760000  0.16700000  0.88400000  1.0 0.0198295671
C  C19  1  0.83300000  0.30240000  0.88400000  1.0 0.0198295671
C  C20  1  0.30240000  0.83300000  0.11600000  1.0 0.0198295671
C  C21  1  0.14030000  0.52650000  0.00420000  1.0 0.0276674059
C  C22  1  0.52650000  0.14030000  0.99580000  1.0 0.0276674059
C  C23  1  0.85970000  0.47350000  0.99580000  1.0 0.0276674059
C  C24  1  0.47350000  0.85970000  0.00420000  1.0 0.0276674059
C  C25  1  0.17000000  0.51660000  0.91800000  1.0 -0.1094134991
C  C26  1  0.51660000  0.17000000  0.08200000  1.0 -0.1094134991
C  C27  1  0.83000000  0.48340000  0.08200000  1.0 -0.1094134991
C  C28  1  0.48340000  0.83000000  0.91800000  1.0 -0.1094134991
C  C29  1  0.19880000  0.42760000  0.91740000  1.0 -0.0616427826
C  C30  1  0.42760000  0.19880000  0.08260000  1.0 -0.0616427826
C  C31  1  0.80120000  0.57240000  0.08260000  1.0 -0.0616427826
C  C32  1  0.57240000  0.80120000  0.91740000  1.0 -0.0616427826
C  C33  1  0.20380000  0.34080000  0.00260000  1.0 0.0625956928
C  C34  1  0.34080000  0.20380000  0.99740000  1.0 0.0625956928
C  C35  1  0.79620000  0.65920000  0.99740000  1.0 0.0625956928
C  C36  1  0.65920000  0.79620000  0.00260000  1.0 0.0625956928
C  C37  1  0.18490000  0.34610000  0.10070000  1.0 -0.1094134991
C  C38  1  0.34610000  0.18490000  0.89930000  1.0 -0.1094134991
C  C39  1  0.81510000  0.65390000  0.89930000  1.0 -0.1094134991
C  C40  1  0.65390000  0.81510000  0.10070000  1.0 -0.1094134991
C  C41  1  0.15260000  0.43700000  0.10080000  1.0 -0.13179524
C  C42  1  0.43700000  0.15260000  0.89920000  1.0 -0.13179524
C  C43  1  0.84740000  0.56300000  0.89920000  1.0 -0.13179524
C  C44  1  0.56300000  0.84740000  0.10080000  1.0 -0.13179524
C  C45  1  0.13790000  0.28050000  0.86150000  1.0 0.0514313261
C  C46  1  0.28050000  0.13790000  0.13850000  1.0 0.0514313261
C  C47  1  0.86210000  0.71950000  0.13850000  1.0 0.0514313261
C  C48  1  0.71950000  0.86210000  0.86150000  1.0 0.0514313261
C  C49  1  0.13650000  0.20210000  0.84880000  1.0 -0.0676171433
C  C50  1  0.20210000  0.13650000  0.15120000  1.0 -0.0676171433
C  C51  1  0.86350000  0.79790000  0.15120000  1.0 -0.0676171433
C  C52  1  0.79790000  0.86350000  0.84880000  1.0 -0.0676171433
C  C53  1  0.04050000  0.24030000  0.72610000  1.0 -0.0420511413
C  C54  1  0.24030000  0.04050000  0.27390000  1.0 -0.0420511413
C  C55  1  0.95950000  0.75970000  0.27390000  1.0 -0.0420511413
C  C56  1  0.75970000  0.95950000  0.72610000  1.0 -0.0420511413
C  C57  1  0.95660000  0.34960000  0.60490000  1.0 0.0392356317
C  C58  1  0.34960000  0.95660000  0.39510000  1.0 0.0392356317
C  C59  1  0.04340000  0.65040000  0.39510000  1.0 0.0392356317
C  C60  1  0.65040000  0.04340000  0.60490000  1.0 0.0392356317
C  C61  1  0.95210000  0.42910000  0.62400000  1.0 -0.1599998161
C  C62  1  0.42910000  0.95210000  0.37600000  1.0 -0.1599998161
C  C63  1  0.04790000  0.57090000  0.37600000  1.0 -0.1599998161
C  C64  1  0.57090000  0.04790000  0.62400000  1.0 -0.1599998161
C  C65  1  0.04350000  0.39510000  0.75300000  1.0 -0.1599998161
C  C66  1  0.39510000  0.04350000  0.24700000  1.0 -0.1599998161
C  C67  1  0.95650000  0.60490000  0.24700000  1.0 -0.1599998161
C  C68  1  0.60490000  0.95650000  0.75300000  1.0 -0.1599998161
C  C69  1  0.85810000  0.39110000  0.46860000  1.0 0.0392356317
C  C70  1  0.39110000  0.85810000  0.53140000  1.0 0.0392356317
C  C71  1  0.14190000  0.60890000  0.53140000  1.0 0.0392356317
C  C72  1  0.60890000  0.14190000  0.46860000  1.0 0.0392356317
C  C73  1  0.85770000  0.32510000  0.43000000  1.0 -0.0616427826
C  C74  1  0.32510000  0.85770000  0.57000000  1.0 -0.0616427826
C  C75  1  0.14230000  0.67490000  0.57000000  1.0 -0.0676171433
C  C76  1  0.67490000  0.14230000  0.43000000  1.0 -0.0616427826
C  C77  1  0.76930000  0.37010000  0.30420000  1.0 0.0392356317
C  C78  1  0.37010000  0.76930000  0.69580000  1.0 0.0392356317
C  C79  1  0.23070000  0.62990000  0.69580000  1.0 0.0392356317
C  C80  1  0.62990000  0.23070000  0.30420000  1.0 0.0392356317
C  C81  1  0.66080000  0.54380000  0.24000000  1.0 -0.0266600066
C  C82  1  0.54380000  0.66080000  0.76000000  1.0 -0.0266600066
C  C83  1  0.33920000  0.45620000  0.76000000  1.0 -0.0266600066
C  C84  1  0.45620000  0.33920000  0.24000000  1.0 -0.0266600066
C  C85  1  0.74830000  0.50530000  0.37700000  1.0 -0.0420511413
C  C86  1  0.50530000  0.74830000  0.62300000  1.0 -0.0420511413
C  C87  1  0.25170000  0.49470000  0.62300000  1.0 -0.0420511413
C  C88  1  0.49470000  0.25170000  0.37700000  1.0 -0.0420511413
C  C89  1  0.24100000  0.24100000  0.00000000  1.0 -0.0926394016
C  C90  1  0.75900000  0.75900000  0.00000000  1.0 -0.0926394016
C  C91  1  0.04580000  0.81060000  0.88300000  1.0 0.0198295671
C  C92  1  0.81060000  0.04580000  0.11700000  1.0 0.0198295671
C  C93  1  0.95420000  0.18940000  0.11700000  1.0 0.0198295671
C  C94  1  0.18940000  0.95420000  0.88300000  1.0 0.0198295671
C  C95  1  0.06010000  0.72530000  0.87800000  1.0 -0.0535289832
C  C96  1  0.72530000  0.06010000  0.12200000  1.0 -0.0535289832
C  C97  1  0.93990000  0.27470000  0.12200000  1.0 -0.0535289832
C  C98  1  0.27470000  0.93990000  0.87800000  1.0 -0.0535289832
C  C99  1  0.14150000  0.61410000  0.12880000  1.0 -0.0616427826
C  C100  1  0.61410000  0.14150000  0.87120000  1.0 -0.0616427826
C  C101  1  0.85850000  0.38590000  0.87120000  1.0 -0.0616427826
C  C102  1  0.38590000  0.85850000  0.12880000  1.0 -0.0616427826
C  C103  1  0.12180000  0.70720000  0.12210000  1.0 0.0198295671
C  C104  1  0.70720000  0.12180000  0.87790000  1.0 0.0198295671
C  C105  1  0.87820000  0.29280000  0.87790000  1.0 0.0198295671
C  C106  1  0.29280000  0.87820000  0.12210000  1.0 0.0198295671
C  C107  1  0.25040000  0.43180000  0.08800000  1.0 -0.0795549825
C  C108  1  0.43180000  0.25040000  0.91200000  1.0 -0.0795549825
C  C109  1  0.74960000  0.56820000  0.91200000  1.0 -0.0795549825
C  C110  1  0.56820000  0.74960000  0.08800000  1.0 -0.0795549825
C  C111  1  0.28370000  0.34190000  0.08710000  1.0 -0.101953134
C  C112  1  0.34190000  0.28370000  0.91290000  1.0 -0.101953134
C  C113  1  0.71630000  0.65810000  0.91290000  1.0 -0.101953134
C  C114  1  0.65810000  0.71630000  0.08710000  1.0 -0.101953134
C  C115  1  0.08930000  0.43870000  0.90820000  1.0 -0.13179524
C  C116  1  0.43870000  0.08930000  0.09180000  1.0 -0.13179524
C  C117  1  0.91070000  0.56130000  0.09180000  1.0 -0.13179524
C  C118  1  0.56130000  0.91070000  0.90820000  1.0 -0.13179524
C  C119  1  0.06490000  0.52430000  0.90930000  1.0 -0.101953134
C  C120  1  0.52430000  0.06490000  0.09070000  1.0 -0.101953134
C  C121  1  0.93510000  0.47570000  0.09070000  1.0 -0.101953134
C  C122  1  0.47570000  0.93510000  0.90930000  1.0 -0.101953134
C  C123  1  0.05958000  0.27378000  0.85530000  1.0 -0.0616427826
C  C124  1  0.27378000  0.05958000  0.14470000  1.0 -0.0616427826
C  C125  1  0.94042000  0.72622000  0.14470000  1.0 -0.0616427826
C  C126  1  0.72622000  0.94042000  0.85530000  1.0 -0.0616427826
C  C127  1  0.97060000  0.30880000  0.73080000  1.0 -0.0616427826
C  C128  1  0.30880000  0.97060000  0.26920000  1.0 -0.0616427826
C  C129  1  0.02940000  0.69120000  0.26920000  1.0 -0.0616427826
C  C130  1  0.69120000  0.02940000  0.73080000  1.0 -0.0616427826
C  C131  1  0.05390000  0.32430000  0.61800000  1.0 -0.1599998161
C  C132  1  0.32430000  0.05390000  0.38200000  1.0 -0.1545548477
C  C133  1  0.94610000  0.67570000  0.38200000  1.0 -0.1599998161
C  C134  1  0.67570000  0.94610000  0.61800000  1.0 -0.1545548477
C  C135  1  0.14530000  0.29290000  0.74860000  1.0 -0.13179524
C  C136  1  0.29290000  0.14530000  0.25140000  1.0 -0.13179524
C  C137  1  0.85470000  0.70710000  0.25140000  1.0 -0.13179524
C  C138  1  0.70710000  0.85470000  0.74860000  1.0 -0.13179524
C  C139  1  0.67360000  0.47120000  0.30470000  1.0 0.0392356317
C  C140  1  0.47120000  0.67360000  0.69530000  1.0 0.0392356317
C  C141  1  0.32640000  0.52880000  0.69530000  1.0 0.0392356317
C  C142  1  0.52880000  0.32640000  0.30470000  1.0 0.0392356317
C  C143  1  0.75500000  0.43120000  0.43200000  1.0 -0.0676171433
C  C144  1  0.43120000  0.75500000  0.56800000  1.0 -0.0676171433
C  C145  1  0.24500000  0.56880000  0.56800000  1.0 -0.0676171433
C  C146  1  0.56880000  0.24500000  0.43200000  1.0 -0.0676171433
C  C147  1  0.87550000  0.37190000  0.37140000  1.0 -0.0420511413
C  C148  1  0.37190000  0.87550000  0.62860000  1.0 -0.0420511413
C  C149  1  0.12450000  0.62810000  0.62860000  1.0 -0.0420511413
C  C150  1  0.62810000  0.12450000  0.37140000  1.0 -0.0420511413
C  C151  1  0.78070000  0.41610000  0.23700000  1.0 -0.0238063778
C  C152  1  0.41610000  0.78070000  0.76300000  1.0 -0.0238063778
C  C153  1  0.21930000  0.58390000  0.76300000  1.0 -0.0238063778
C  C154  1  0.58390000  0.21930000  0.23700000  1.0 -0.0238063778
I  I1  1  0.62694000  0.37306000  0.98726000  1.0 -0.463114258
I  I2  1  0.37306000  0.62694000  0.01274000  1.0 -0.463114258
I  I3  1  0.12239000  0.87761000  0.25570000  1.0 -0.4445522242
I  I4  1  0.87761000  0.12239000  0.74430000  1.0 -0.4445522242
N  N1  1  0.07600000  0.80380000  0.00200000  1.0 -0.1740887278
N  N2  1  0.80380000  0.07600000  0.99800000  1.0 -0.1740887278
N  N3  1  0.92400000  0.19620000  0.99800000  1.0 -0.1740887278
N  N4  1  0.19620000  0.92400000  0.00200000  1.0 -0.1740887278
N  N5  1  0.67520000  0.47560000  0.19920000  1.0 -0.1599998161
N  N6  1  0.47560000  0.67520000  0.80080000  1.0 -0.1599998161
N  N7  1  0.32480000  0.52440000  0.80080000  1.0 -0.1599998161
N  N8  1  0.52440000  0.32480000  0.19920000  1.0 -0.1599998161
