# DDEC6 charges by PACMAN v1.1 (https://github.com/mtap-research/PACMAN-charge/)
data_ZISXEG_FSR_pacman
_symmetry_space_group_name_H-M   'P 1'
_cell_length_a   16.70790000
_cell_length_b   16.70790000
_cell_length_c   16.70790000
_cell_angle_alpha   133.46700000
_cell_angle_beta   133.46700000
_cell_angle_gamma   67.92140000
_symmetry_Int_Tables_number   1
_chemical_formula_structural   Cu2H64C77(IN2)2
_chemical_formula_sum   'Cu4 H128 C154 I4 N8'
_cell_volume   2414.42278672
_cell_formula_units_Z   2
loop_
 _symmetry_equiv_pos_site_id
 _symmetry_equiv_pos_as_xyz
  1  'x, y, z'
loop_
 _atom_site_type_symbol
 _atom_site_label
 _atom_site_symmetry_multiplicity
 _atom_site_fract_x
 _atom_site_fract_y
 _atom_site_fract_z
 _atom_site_occupancy
 _atom_site_charge
Cu  Cu1  1  0.43388000  0.93388000  0.36776000  1.0 0.0621193503
Cu  Cu2  1  0.06612000  0.43388000  0.50000000  1.0 0.0621193503
Cu  Cu3  1  0.56612000  0.06612000  0.63224000  1.0 0.0621193503
Cu  Cu4  1  0.93388000  0.56612000  0.50000000  1.0 0.0621193503
H  H1  1  0.37990000  0.69700000  0.14850000  1.0 0.0805268915
H  H2  1  0.12010000  0.26860000  0.31710000  1.0 0.0805268915
H  H3  1  0.54850000  0.23140000  0.85150000  1.0 0.0805268915
H  H4  1  0.95150000  0.80300000  0.68290000  1.0 0.0805268915
H  H5  1  0.26860000  0.95150000  0.14850000  1.0 0.0805268915
H  H6  1  0.23140000  0.37990000  0.68290000  1.0 0.0805268915
H  H7  1  0.69700000  0.54850000  0.31710000  1.0 0.0805268915
H  H8  1  0.80300000  0.12010000  0.85150000  1.0 0.0805268915
H  H9  1  0.62010000  0.30300000  0.85150000  1.0 0.0805268915
H  H10  1  0.87990000  0.73140000  0.68290000  1.0 0.0805268915
H  H11  1  0.45150000  0.76860000  0.14850000  1.0 0.0805268915
H  H12  1  0.04850000  0.19700000  0.31710000  1.0 0.0805268915
H  H13  1  0.73140000  0.04850000  0.85150000  1.0 0.0805268915
H  H14  1  0.76860000  0.62010000  0.31710000  1.0 0.0805268915
H  H15  1  0.30300000  0.45150000  0.68290000  1.0 0.0805268915
H  H16  1  0.19700000  0.87990000  0.14850000  1.0 0.0805268915
H  H17  1  0.23860000  0.54070000  0.97090000  1.0 0.1037750625
H  H18  1  0.26140000  0.23230000  0.30210000  1.0 0.1037750625
H  H19  1  0.56980000  0.26770000  0.02910000  1.0 0.1037750625
H  H20  1  0.93020000  0.95930000  0.69790000  1.0 0.1037750625
H  H21  1  0.23230000  0.93020000  0.97090000  1.0 0.1037750625
H  H22  1  0.26770000  0.23860000  0.69790000  1.0 0.1037750625
H  H23  1  0.54070000  0.56980000  0.30210000  1.0 0.1037750625
H  H24  1  0.95930000  0.26140000  0.02910000  1.0 0.1037750625
H  H25  1  0.76140000  0.45930000  0.02910000  1.0 0.1037750625
H  H26  1  0.73860000  0.76770000  0.69790000  1.0 0.1037750625
H  H27  1  0.43020000  0.73230000  0.97090000  1.0 0.1037750625
H  H28  1  0.06980000  0.04070000  0.30210000  1.0 0.1037750625
H  H29  1  0.76770000  0.06980000  0.02910000  1.0 0.1037750625
H  H30  1  0.73230000  0.76140000  0.30210000  1.0 0.1037750625
H  H31  1  0.45930000  0.43020000  0.69790000  1.0 0.1037750625
H  H32  1  0.04070000  0.73860000  0.97090000  1.0 0.1037750625
H  H33  1  0.05700000  0.74790000  0.08970000  1.0 0.1122309951
H  H34  1  0.44300000  0.53270000  0.69090000  1.0 0.1122309951
H  H35  1  0.65820000  0.96730000  0.91030000  1.0 0.1122309951
H  H36  1  0.84180000  0.75210000  0.30910000  1.0 0.1122309951
H  H37  1  0.53270000  0.84180000  0.08970000  1.0 0.1122309951
H  H38  1  0.96730000  0.05700000  0.30910000  1.0 0.1122309951
H  H39  1  0.74790000  0.65820000  0.69090000  1.0 0.1122309951
H  H40  1  0.75210000  0.44300000  0.91030000  1.0 0.1122309951
H  H41  1  0.94300000  0.25210000  0.91030000  1.0 0.1122309951
H  H42  1  0.55700000  0.46730000  0.30910000  1.0 0.1122309951
H  H43  1  0.34180000  0.03270000  0.08970000  1.0 0.1122309951
H  H44  1  0.15820000  0.24790000  0.69090000  1.0 0.1122309951
H  H45  1  0.46730000  0.15820000  0.91030000  1.0 0.1122309951
H  H46  1  0.03270000  0.94300000  0.69090000  1.0 0.1122309951
H  H47  1  0.25210000  0.34180000  0.30910000  1.0 0.1122309951
H  H48  1  0.24790000  0.55700000  0.08970000  1.0 0.1122309951
H  H49  1  0.21200000  0.89110000  0.28430000  1.0 0.0621193503
H  H50  1  0.28800000  0.57230000  0.67910000  1.0 0.0621193503
H  H51  1  0.60680000  0.92770000  0.71570000  1.0 0.0621193503
H  H52  1  0.89320000  0.60890000  0.32090000  1.0 0.0621193503
H  H53  1  0.57230000  0.89320000  0.28430000  1.0 0.0621193503
H  H54  1  0.92770000  0.21200000  0.32090000  1.0 0.0621193503
H  H55  1  0.89110000  0.60680000  0.67910000  1.0 0.0621193503
H  H56  1  0.60890000  0.28800000  0.71570000  1.0 0.0621193503
H  H57  1  0.78800000  0.10890000  0.71570000  1.0 0.0621193503
H  H58  1  0.71200000  0.42770000  0.32090000  1.0 0.0621193503
H  H59  1  0.39320000  0.07230000  0.28430000  1.0 0.0621193503
H  H60  1  0.10680000  0.39110000  0.67910000  1.0 0.0621193503
H  H61  1  0.42770000  0.10680000  0.71570000  1.0 0.0621193503
H  H62  1  0.07230000  0.78800000  0.67910000  1.0 0.0621193503
H  H63  1  0.10890000  0.39320000  0.32090000  1.0 0.0621193503
H  H64  1  0.39110000  0.71200000  0.28430000  1.0 0.0621193503
H  H65  1  0.93970000  0.58570000  0.76360000  1.0 0.0453738014
H  H66  1  0.56030000  0.32390000  0.64600000  1.0 0.0453738014
H  H67  1  0.82210000  0.17610000  0.23640000  1.0 0.0453738014
H  H68  1  0.67790000  0.91430000  0.35400000  1.0 0.0453738014
H  H69  1  0.32390000  0.67790000  0.76360000  1.0 0.0453738014
H  H70  1  0.17610000  0.93970000  0.35400000  1.0 0.0453738014
H  H71  1  0.58570000  0.82210000  0.64600000  1.0 0.0453738014
H  H72  1  0.91430000  0.56030000  0.23640000  1.0 0.0453738014
H  H73  1  0.06030000  0.41430000  0.23640000  1.0 0.0453738014
H  H74  1  0.43970000  0.67610000  0.35400000  1.0 0.0453738014
H  H75  1  0.17790000  0.82390000  0.76360000  1.0 0.0453738014
H  H76  1  0.32210000  0.08570000  0.64600000  1.0 0.0453738014
H  H77  1  0.67610000  0.32210000  0.23640000  1.0 0.0453738014
H  H78  1  0.82390000  0.06030000  0.64600000  1.0 0.0453738014
H  H79  1  0.41430000  0.17790000  0.35400000  1.0 0.0453738014
H  H80  1  0.08570000  0.43970000  0.76360000  1.0 0.0453738014
H  H81  1  0.79200000  0.42980000  0.55740000  1.0 0.0621193503
H  H82  1  0.70800000  0.26540000  0.63780000  1.0 0.0621193503
H  H83  1  0.87240000  0.23460000  0.44260000  1.0 0.0621193503
H  H84  1  0.62760000  0.07020000  0.36220000  1.0 0.0621193503
H  H85  1  0.26540000  0.62760000  0.55740000  1.0 0.0621193503
H  H86  1  0.23460000  0.79200000  0.36220000  1.0 0.0621193503
H  H87  1  0.42980000  0.87240000  0.63780000  1.0 0.0621193503
H  H88  1  0.07020000  0.70800000  0.44260000  1.0 0.0621193503
H  H89  1  0.20800000  0.57020000  0.44260000  1.0 0.0621193503
H  H90  1  0.29200000  0.73460000  0.36220000  1.0 0.0621193503
H  H91  1  0.12760000  0.76540000  0.55740000  1.0 0.0621193503
H  H92  1  0.37240000  0.92980000  0.63780000  1.0 0.0621193503
H  H93  1  0.73460000  0.37240000  0.44260000  1.0 0.0621193503
H  H94  1  0.76540000  0.20800000  0.63780000  1.0 0.0621193503
H  H95  1  0.57020000  0.12760000  0.36220000  1.0 0.0621193503
H  H96  1  0.92980000  0.29200000  0.55740000  1.0 0.0621193503
H  H97  1  0.94710000  0.29900000  0.75670000  1.0 0.0805268915
H  H98  1  0.55290000  0.30960000  0.35190000  1.0 0.0805268915
H  H99  1  0.54230000  0.19040000  0.24330000  1.0 0.0805268915
H  H100  1  0.95770000  0.20100000  0.64810000  1.0 0.0805268915
H  H101  1  0.30960000  0.95770000  0.75670000  1.0 0.0805268915
H  H102  1  0.19040000  0.94710000  0.64810000  1.0 0.0805268915
H  H103  1  0.29900000  0.54230000  0.35190000  1.0 0.0805268915
H  H104  1  0.20100000  0.55290000  0.24330000  1.0 0.0805268915
H  H105  1  0.05290000  0.70100000  0.24330000  1.0 0.0805268915
H  H106  1  0.44710000  0.69040000  0.64810000  1.0 0.0805268915
H  H107  1  0.45770000  0.80960000  0.75670000  1.0 0.0805268915
H  H108  1  0.04230000  0.79900000  0.35190000  1.0 0.0805268915
H  H109  1  0.69040000  0.04230000  0.24330000  1.0 0.0805268915
H  H110  1  0.80960000  0.05290000  0.35190000  1.0 0.0805268915
H  H111  1  0.70100000  0.45770000  0.64810000  1.0 0.0805268915
H  H112  1  0.79900000  0.44710000  0.75670000  1.0 0.0805268915
H  H113  1  0.09020000  0.45820000  0.96160000  1.0 0.0924177444
H  H114  1  0.40980000  0.37140000  0.36800000  1.0 0.0924177444
H  H115  1  0.49660000  0.12860000  0.03840000  1.0 0.0924177444
H  H116  1  0.00340000  0.04180000  0.63200000  1.0 0.0924177444
H  H117  1  0.37140000  0.00340000  0.96160000  1.0 0.0924177444
H  H118  1  0.12860000  0.09020000  0.63200000  1.0 0.0924177444
H  H119  1  0.45820000  0.49660000  0.36800000  1.0 0.0924177444
H  H120  1  0.04180000  0.40980000  0.03840000  1.0 0.0924177444
H  H121  1  0.90980000  0.54180000  0.03840000  1.0 0.0924177444
H  H122  1  0.59020000  0.62860000  0.63200000  1.0 0.0924177444
H  H123  1  0.50340000  0.87140000  0.96160000  1.0 0.0924177444
H  H124  1  0.99660000  0.95820000  0.36800000  1.0 0.0924177444
H  H125  1  0.62860000  0.99660000  0.03840000  1.0 0.0924177444
H  H126  1  0.87140000  0.90980000  0.36800000  1.0 0.0924177444
H  H127  1  0.54180000  0.50340000  0.63200000  1.0 0.0924177444
H  H128  1  0.95820000  0.59020000  0.96160000  1.0 0.0924177444
C  C1  1  0.31470000  0.70750000  0.13900000  1.0 0.0209765615
C  C2  1  0.18530000  0.32430000  0.39280000  1.0 0.0209765615
C  C3  1  0.56850000  0.17570000  0.86100000  1.0 0.0209765615
C  C4  1  0.93150000  0.79250000  0.60720000  1.0 0.0209765615
C  C5  1  0.32430000  0.93150000  0.13900000  1.0 0.0209765615
C  C6  1  0.17570000  0.31470000  0.60720000  1.0 0.0209765615
C  C7  1  0.70750000  0.56850000  0.39280000  1.0 0.0209765615
C  C8  1  0.79250000  0.18530000  0.86100000  1.0 0.0209765615
C  C9  1  0.68530000  0.29250000  0.86100000  1.0 0.0209765615
C  C10  1  0.81470000  0.67570000  0.60720000  1.0 0.0209765615
C  C11  1  0.43150000  0.82430000  0.13900000  1.0 0.0209765615
C  C12  1  0.06850000  0.20750000  0.39280000  1.0 0.0209765615
C  C13  1  0.67570000  0.06850000  0.86100000  1.0 0.0209765615
C  C14  1  0.82430000  0.68530000  0.39280000  1.0 0.0209765615
C  C15  1  0.29250000  0.43150000  0.60720000  1.0 0.0209765615
C  C16  1  0.20750000  0.81470000  0.13900000  1.0 0.0209765615
C  C17  1  0.22820000  0.61370000  0.02870000  1.0 -0.0744369122
C  C18  1  0.27180000  0.30050000  0.38550000  1.0 -0.0744369122
C  C19  1  0.58500000  0.19950000  0.97130000  1.0 -0.0744369122
C  C20  1  0.91500000  0.88630000  0.61450000  1.0 -0.0744369122
C  C21  1  0.30050000  0.91500000  0.02870000  1.0 -0.0744369122
C  C22  1  0.19950000  0.22820000  0.61450000  1.0 -0.0744369122
C  C23  1  0.61370000  0.58500000  0.38550000  1.0 -0.0744369122
C  C24  1  0.88630000  0.27180000  0.97130000  1.0 -0.0744369122
C  C25  1  0.77180000  0.38630000  0.97130000  1.0 -0.0744369122
C  C26  1  0.72820000  0.69950000  0.61450000  1.0 -0.0744369122
C  C27  1  0.41500000  0.80050000  0.02870000  1.0 -0.0744369122
C  C28  1  0.08500000  0.11370000  0.38550000  1.0 -0.0744369122
C  C29  1  0.69950000  0.08500000  0.97130000  1.0 -0.0744369122
C  C30  1  0.80050000  0.77180000  0.38550000  1.0 -0.0744369122
C  C31  1  0.38630000  0.41500000  0.61450000  1.0 -0.0744369122
C  C32  1  0.11370000  0.72820000  0.02870000  1.0 -0.0744369122
C  C33  1  0.12850000  0.62850000  0.00520000  1.0 0.0333148175
C  C34  1  0.37150000  0.37670000  0.50000000  1.0 0.0333148175
C  C35  1  0.62330000  0.12330000  0.99480000  1.0 0.0333148175
C  C36  1  0.87670000  0.87150000  0.50000000  1.0 0.0333148175
C  C37  1  0.37670000  0.87670000  0.00520000  1.0 0.0333148175
C  C38  1  0.12330000  0.12850000  0.50000000  1.0 0.0333148175
C  C39  1  0.62850000  0.62330000  0.50000000  1.0 0.0333148175
C  C40  1  0.87150000  0.37150000  0.99480000  1.0 0.0333148175
C  C41  1  0.12340000  0.73380000  0.10080000  1.0 -0.0800675406
C  C42  1  0.37660000  0.47740000  0.61040000  1.0 -0.0800675406
C  C43  1  0.63300000  0.02260000  0.89920000  1.0 -0.0800675406
C  C44  1  0.86700000  0.76620000  0.38960000  1.0 -0.0800675406
C  C45  1  0.47740000  0.86700000  0.10080000  1.0 -0.0800675406
C  C46  1  0.02260000  0.12340000  0.38960000  1.0 -0.0800675406
C  C47  1  0.73380000  0.63300000  0.61040000  1.0 -0.0800675406
C  C48  1  0.76620000  0.37660000  0.89920000  1.0 -0.0800675406
C  C49  1  0.87660000  0.26620000  0.89920000  1.0 -0.0800675406
C  C50  1  0.62340000  0.52260000  0.38960000  1.0 -0.0800675406
C  C51  1  0.36700000  0.97740000  0.10080000  1.0 -0.0800675406
C  C52  1  0.13300000  0.23380000  0.61040000  1.0 -0.0800675406
C  C53  1  0.52260000  0.13300000  0.89920000  1.0 -0.0800675406
C  C54  1  0.97740000  0.87660000  0.61040000  1.0 -0.0800675406
C  C55  1  0.26620000  0.36700000  0.38960000  1.0 -0.0800675406
C  C56  1  0.23380000  0.62340000  0.10080000  1.0 -0.0800675406
C  C57  1  0.21470000  0.82030000  0.21400000  1.0 0.0144095154
C  C58  1  0.28530000  0.49930000  0.60560000  1.0 0.0144095154
C  C59  1  0.60630000  0.00070000  0.78600000  1.0 0.0144095154
C  C60  1  0.89370000  0.67970000  0.39440000  1.0 0.0144095154
C  C61  1  0.49930000  0.89370000  0.21400000  1.0 0.0144095154
C  C62  1  0.00070000  0.21470000  0.39440000  1.0 0.0144095154
C  C63  1  0.82030000  0.60630000  0.60560000  1.0 0.0144095154
C  C64  1  0.67970000  0.28530000  0.78600000  1.0 0.0144095154
C  C65  1  0.78530000  0.17970000  0.78600000  1.0 0.0144095154
C  C66  1  0.71470000  0.50070000  0.39440000  1.0 0.0144095154
C  C67  1  0.39370000  0.99930000  0.21400000  1.0 0.0144095154
C  C68  1  0.10630000  0.32030000  0.60560000  1.0 0.0144095154
C  C69  1  0.50070000  0.10630000  0.78600000  1.0 0.0144095154
C  C70  1  0.99930000  0.78530000  0.60560000  1.0 0.0144095154
C  C71  1  0.17970000  0.39370000  0.39440000  1.0 0.0144095154
C  C72  1  0.32030000  0.71470000  0.21400000  1.0 0.0144095154
C  C73  1  0.03260000  0.53260000  0.88020000  1.0 0.0333148175
C  C74  1  0.46740000  0.34760000  0.50000000  1.0 0.0333148175
C  C75  1  0.65240000  0.15240000  0.11980000  1.0 0.0333148175
C  C76  1  0.84760000  0.96740000  0.50000000  1.0 0.0333148175
C  C77  1  0.34760000  0.84760000  0.88020000  1.0 0.0333148175
C  C78  1  0.15240000  0.03260000  0.50000000  1.0 0.0333148175
C  C79  1  0.53260000  0.65240000  0.50000000  1.0 0.0333148175
C  C80  1  0.96740000  0.46740000  0.11980000  1.0 0.0333148175
C  C81  1  0.94150000  0.52690000  0.76160000  1.0 -0.1224800999
C  C82  1  0.55850000  0.32010000  0.58540000  1.0 -0.1224800999
C  C83  1  0.76530000  0.17990000  0.23840000  1.0 -0.1224800999
C  C84  1  0.73470000  0.97310000  0.41460000  1.0 -0.1224800999
C  C85  1  0.32010000  0.73470000  0.76160000  1.0 -0.1224800999
C  C86  1  0.17990000  0.94150000  0.41460000  1.0 -0.1224800999
C  C87  1  0.52690000  0.76530000  0.58540000  1.0 -0.1224800999
C  C88  1  0.97310000  0.55850000  0.23840000  1.0 -0.1224800999
C  C89  1  0.05850000  0.47310000  0.23840000  1.0 -0.1224800999
C  C90  1  0.44150000  0.67990000  0.41460000  1.0 -0.1224800999
C  C91  1  0.23470000  0.82010000  0.76160000  1.0 -0.1224800999
C  C92  1  0.26530000  0.02690000  0.58540000  1.0 -0.1224800999
C  C93  1  0.67990000  0.26530000  0.23840000  1.0 -0.1224800999
C  C94  1  0.82010000  0.05850000  0.58540000  1.0 -0.1224800999
C  C95  1  0.47310000  0.23470000  0.41460000  1.0 -0.1224800999
C  C96  1  0.02690000  0.44150000  0.76160000  1.0 -0.1224800999
C  C97  1  0.85180000  0.43410000  0.63870000  1.0 -0.1224800999
C  C98  1  0.64820000  0.28690000  0.58230000  1.0 -0.1224800999
C  C99  1  0.79540000  0.21310000  0.36130000  1.0 -0.1224800999
C  C100  1  0.70460000  0.06590000  0.41770000  1.0 -0.1224800999
C  C101  1  0.28690000  0.70460000  0.63870000  1.0 -0.1224800999
C  C102  1  0.21310000  0.85180000  0.41770000  1.0 -0.1224800999
C  C103  1  0.43410000  0.79540000  0.58230000  1.0 -0.1224800999
C  C104  1  0.06590000  0.64820000  0.36130000  1.0 -0.1224800999
C  C105  1  0.14820000  0.56590000  0.36130000  1.0 -0.1224800999
C  C106  1  0.35180000  0.71310000  0.41770000  1.0 -0.1224800999
C  C107  1  0.20460000  0.78690000  0.63870000  1.0 -0.1224800999
C  C108  1  0.29540000  0.93410000  0.58230000  1.0 -0.1224800999
C  C109  1  0.71310000  0.29540000  0.36130000  1.0 -0.1224800999
C  C110  1  0.78690000  0.14820000  0.58230000  1.0 -0.1224800999
C  C111  1  0.56590000  0.20460000  0.41770000  1.0 -0.1224800999
C  C112  1  0.93410000  0.35180000  0.63870000  1.0 -0.1224800999
C  C113  1  0.84970000  0.34970000  0.63480000  1.0 0.0453738014
C  C114  1  0.65030000  0.28510000  0.50000000  1.0 0.0453738014
C  C115  1  0.71490000  0.21490000  0.36520000  1.0 0.0453738014
C  C116  1  0.78510000  0.15030000  0.50000000  1.0 0.0453738014
C  C117  1  0.28510000  0.78510000  0.63480000  1.0 0.0453738014
C  C118  1  0.21490000  0.84970000  0.50000000  1.0 0.0453738014
C  C119  1  0.34970000  0.71490000  0.50000000  1.0 0.0453738014
C  C120  1  0.15030000  0.65030000  0.36520000  1.0 0.0453738014
C  C121  1  0.94350000  0.35740000  0.75710000  1.0 -0.0898057044
C  C122  1  0.55650000  0.31360000  0.41390000  1.0 -0.0898057044
C  C123  1  0.60030000  0.18640000  0.24290000  1.0 -0.0898057044
C  C124  1  0.89970000  0.14260000  0.58610000  1.0 -0.0898057044
C  C125  1  0.31360000  0.89970000  0.75710000  1.0 -0.0898057044
C  C126  1  0.18640000  0.94350000  0.58610000  1.0 -0.0898057044
C  C127  1  0.35740000  0.60030000  0.41390000  1.0 -0.0898057044
C  C128  1  0.14260000  0.55650000  0.24290000  1.0 -0.0898057044
C  C129  1  0.05650000  0.64260000  0.24290000  1.0 -0.0898057044
C  C130  1  0.44350000  0.68640000  0.58610000  1.0 -0.0898057044
C  C131  1  0.39970000  0.81360000  0.75710000  1.0 -0.0898057044
C  C132  1  0.10030000  0.85740000  0.41390000  1.0 -0.0898057044
C  C133  1  0.68640000  0.10030000  0.24290000  1.0 -0.0898057044
C  C134  1  0.81360000  0.05650000  0.41390000  1.0 -0.0898057044
C  C135  1  0.64260000  0.39970000  0.58610000  1.0 -0.0898057044
C  C136  1  0.85740000  0.44350000  0.75710000  1.0 -0.0898057044
C  C137  1  0.03080000  0.45160000  0.87840000  1.0 -0.0898057044
C  C138  1  0.46920000  0.34760000  0.42080000  1.0 -0.0898057044
C  C139  1  0.57320000  0.15240000  0.12160000  1.0 -0.0898057044
C  C140  1  0.92680000  0.04840000  0.57920000  1.0 -0.0898057044
C  C141  1  0.34760000  0.92680000  0.87840000  1.0 -0.0898057044
C  C142  1  0.15240000  0.03080000  0.57920000  1.0 -0.0898057044
C  C143  1  0.45160000  0.57320000  0.42080000  1.0 -0.0898057044
C  C144  1  0.04840000  0.46920000  0.12160000  1.0 -0.0898057044
C  C145  1  0.96920000  0.54840000  0.12160000  1.0 -0.0898057044
C  C146  1  0.53080000  0.65240000  0.57920000  1.0 -0.0898057044
C  C147  1  0.42680000  0.84760000  0.87840000  1.0 -0.0898057044
C  C148  1  0.07320000  0.95160000  0.42080000  1.0 -0.0898057044
C  C149  1  0.65240000  0.07320000  0.12160000  1.0 -0.0898057044
C  C150  1  0.84760000  0.96920000  0.42080000  1.0 -0.0898057044
C  C151  1  0.54840000  0.42680000  0.57920000  1.0 -0.0898057044
C  C152  1  0.95160000  0.53080000  0.87840000  1.0 -0.0898057044
C  C153  1  0.75000000  0.25000000  0.50000000  1.0 -0.0375836441
C  C154  1  0.25000000  0.75000000  0.50000000  1.0 -0.0375836441
I  I1  1  0.62055000  0.87945000  0.50000000  1.0 -0.4902073877
I  I2  1  0.87945000  0.37945000  0.25890000  1.0 -0.4902073877
I  I3  1  0.37945000  0.12055000  0.50000000  1.0 -0.4902073877
I  I4  1  0.12055000  0.62055000  0.74110000  1.0 -0.4902073877
N  N1  1  0.30740000  0.80740000  0.22780000  1.0 -0.0800675406
N  N2  1  0.19260000  0.42040000  0.50000000  1.0 -0.0800675406
N  N3  1  0.57960000  0.07960000  0.77220000  1.0 -0.0800675406
N  N4  1  0.92040000  0.69260000  0.50000000  1.0 -0.0800675406
N  N5  1  0.42040000  0.92040000  0.22780000  1.0 -0.0744369122
N  N6  1  0.07960000  0.30740000  0.50000000  1.0 -0.0800675406
N  N7  1  0.80740000  0.57960000  0.50000000  1.0 -0.0800675406
N  N8  1  0.69260000  0.19260000  0.77220000  1.0 -0.0800675406
