# DDEC6 charges by PACMAN v1.1 (https://github.com/mtap-research/PACMAN-charge/)
data_ZITRUP_ASR_pacman
_symmetry_space_group_name_H-M   'P 1'
_cell_length_a   8.32540000
_cell_length_b   8.32540000
_cell_length_c   8.32540000
_cell_angle_alpha   60.00000000
_cell_angle_beta   60.00000000
_cell_angle_gamma   60.00000000
_symmetry_Int_Tables_number   1
_chemical_formula_structural   LiZn(CN)4
_chemical_formula_sum   'Li1 Zn1 C4 N4'
_cell_volume   408.03773505
_cell_formula_units_Z   1
loop_
 _symmetry_equiv_pos_site_id
 _symmetry_equiv_pos_as_xyz
  1  'x, y, z'
loop_
 _atom_site_type_symbol
 _atom_site_label
 _atom_site_symmetry_multiplicity
 _atom_site_fract_x
 _atom_site_fract_y
 _atom_site_fract_z
 _atom_site_occupancy
 _atom_site_charge
Li  Li1  1  0.25000000  0.25000000  0.25000000  1.0 0.0225168176
Zn  Zn1  1  0.00000000  0.00000000  0.00000000  1.0 0.8129176132
C  C1  1  0.15490000  0.15490000  0.15490000  1.0 0.3453464143
C  C2  1  0.53530000  0.15490000  0.15490000  1.0 0.3368889324
C  C3  1  0.15490000  0.15490000  0.53530000  1.0 0.3453464143
C  C4  1  0.15490000  0.53530000  0.15490000  1.0 0.3368889324
N  N1  1  0.10130000  0.10130000  0.10130000  1.0 -0.5499762811
N  N2  1  0.69610000  0.10130000  0.10130000  1.0 -0.5499762811
N  N3  1  0.10130000  0.10130000  0.69610000  1.0 -0.5499762811
N  N4  1  0.10130000  0.69610000  0.10130000  1.0 -0.5499762811
