# DDEC6 charges by PACMAN v1.1 (https://github.com/mtap-research/PACMAN-charge/)
data_ZITWIK01_FSR_pacman
_symmetry_space_group_name_H-M   'P 1'
_cell_length_a   6.52280000
_cell_length_b   6.52280000
_cell_length_c   6.52280000
_cell_angle_alpha   90.00000000
_cell_angle_beta   90.00000000
_cell_angle_gamma   90.00000000
_symmetry_Int_Tables_number   1
_chemical_formula_structural   CdN27
_chemical_formula_sum   'Cd1 N27'
_cell_volume   277.52504873
_cell_formula_units_Z   1
loop_
 _symmetry_equiv_pos_site_id
 _symmetry_equiv_pos_as_xyz
  1  'x, y, z'
loop_
 _atom_site_type_symbol
 _atom_site_label
 _atom_site_symmetry_multiplicity
 _atom_site_fract_x
 _atom_site_fract_y
 _atom_site_fract_z
 _atom_site_occupancy
 _atom_site_charge
Cd  Cd1  1  0.00000000  0.00000000  0.00000000  1.0 0.312490141
N  N1  1  0.00000000  0.34530000  0.08500000  1.0 -0.0460845437
N  N2  1  0.00000000  0.65470000  0.08500000  1.0 -0.0460845437
N  N3  1  0.00000000  0.34530000  0.91500000  1.0 -0.0447184546
N  N4  1  0.00000000  0.65470000  0.91500000  1.0 -0.0447184546
N  N5  1  0.08500000  0.00000000  0.34530000  1.0 -0.0460845437
N  N6  1  0.08500000  0.00000000  0.65470000  1.0 -0.0460845437
N  N7  1  0.91500000  0.00000000  0.34530000  1.0 -0.0460845437
N  N8  1  0.91500000  0.00000000  0.65470000  1.0 -0.0460845437
N  N9  1  0.34530000  0.08500000  0.00000000  1.0 -0.0460845437
N  N10  1  0.65470000  0.08500000  0.00000000  1.0 -0.0460845437
N  N11  1  0.34530000  0.91500000  0.00000000  1.0 -0.0447184546
N  N12  1  0.65470000  0.91500000  0.00000000  1.0 -0.0447184546
N  N13  1  0.34530000  0.00000000  0.91500000  1.0 -0.0447184546
N  N14  1  0.65470000  0.00000000  0.91500000  1.0 -0.0447184546
N  N15  1  0.34530000  0.00000000  0.08500000  1.0 -0.0460845437
N  N16  1  0.65470000  0.00000000  0.08500000  1.0 -0.0460845437
N  N17  1  0.00000000  0.08500000  0.65470000  1.0 -0.0460845437
N  N18  1  0.00000000  0.08500000  0.34530000  1.0 -0.0460845437
N  N19  1  0.00000000  0.91500000  0.65470000  1.0 -0.0447184546
N  N20  1  0.00000000  0.91500000  0.34530000  1.0 -0.0447184546
N  N21  1  0.08500000  0.34530000  0.00000000  1.0 -0.0460845437
N  N22  1  0.08500000  0.65470000  0.00000000  1.0 -0.0460845437
N  N23  1  0.91500000  0.34530000  0.00000000  1.0 -0.0460845437
N  N24  1  0.91500000  0.65470000  0.00000000  1.0 -0.0460845437
N  N25  1  0.00000000  0.50000000  0.00000000  1.0 0.2608700649
N  N26  1  0.00000000  0.00000000  0.50000000  1.0 0.2608700649
N  N27  1  0.50000000  0.00000000  0.00000000  1.0 0.2608700649
