# DDEC6 charges by PACMAN v1.1 (https://github.com/mtap-research/PACMAN-charge/)
data_ZIWKEY_ASR_pacman
_symmetry_space_group_name_H-M   'P 1'
_cell_length_a   10.27960000
_cell_length_b   34.20800000
_cell_length_c   15.21910000
_cell_angle_alpha   90.00000000
_cell_angle_beta   106.25700000
_cell_angle_gamma   90.00000000
_symmetry_Int_Tables_number   1
_chemical_formula_structural   Cu3H14C32(O5F12)2
_chemical_formula_sum   'Cu12 H56 C128 O40 F96'
_cell_volume   5137.72893342
_cell_formula_units_Z   4
loop_
 _symmetry_equiv_pos_site_id
 _symmetry_equiv_pos_as_xyz
  1  'x, y, z'
loop_
 _atom_site_type_symbol
 _atom_site_label
 _atom_site_symmetry_multiplicity
 _atom_site_fract_x
 _atom_site_fract_y
 _atom_site_fract_z
 _atom_site_occupancy
 _atom_site_charge
Cu  Cu1  1  0.17509000  0.27755000  0.11526000  1.0 0.9402666181
Cu  Cu2  1  0.30348000  0.71612000  0.02304000  1.0 0.9099376886
Cu  Cu3  1  0.57105000  0.72271000  0.95964000  1.0 0.9521298795
Cu  Cu4  1  0.32491000  0.77755000  0.88474000  1.0 0.9402666181
Cu  Cu5  1  0.19652000  0.21612000  0.97696000  1.0 0.9099376886
Cu  Cu6  1  0.92895000  0.22271000  0.04036000  1.0 0.9521298795
Cu  Cu7  1  0.82491000  0.72245000  0.88474000  1.0 0.9402666181
Cu  Cu8  1  0.69652000  0.28388000  0.97696000  1.0 0.9099376886
Cu  Cu9  1  0.42895000  0.27729000  0.04036000  1.0 0.9521298795
Cu  Cu10  1  0.67509000  0.22245000  0.11526000  1.0 0.9402666181
Cu  Cu11  1  0.80348000  0.78388000  0.02304000  1.0 0.9099376886
Cu  Cu12  1  0.07105000  0.77729000  0.95964000  1.0 0.9521298795
H  H1  1  0.33910000  0.70310000  0.86680000  1.0 0.4114825293
H  H2  1  0.80990000  0.71090000  0.04680000  1.0 0.4044681578
H  H3  1  0.13170000  0.31210000  0.37020000  1.0 0.0808790166
H  H4  1  0.81310000  0.23750000  0.45970000  1.0 0.0908031254
H  H5  1  0.83750000  0.23010000  0.31420000  1.0 0.1080309664
H  H6  1  0.76620000  0.31480000  0.73180000  1.0 0.0908031254
H  H7  1  0.02390000  0.22450000  0.78260000  1.0 0.1080309664
H  H8  1  0.06040000  0.23190000  0.63960000  1.0 0.1013062896
H  H9  1  0.16350000  0.40150000  0.15530000  1.0 0.0808790166
H  H10  1  0.50080000  0.46570000  0.06480000  1.0 0.1013062896
H  H11  1  0.48950000  0.39860000  0.05980000  1.0 0.1080309664
H  H12  1  0.20970000  0.52640000  0.99100000  1.0 0.0746368147
H  H13  1  0.23840000  0.59410000  0.97950000  1.0 0.1013062896
H  H14  1  0.52640000  0.59290000  0.21820000  1.0 0.0808790166
H  H15  1  0.16090000  0.20310000  0.13320000  1.0 0.4114825293
H  H16  1  0.69010000  0.21090000  0.95320000  1.0 0.4044681578
H  H17  1  0.36830000  0.81210000  0.62980000  1.0 0.0808790166
H  H18  1  0.68690000  0.73750000  0.54030000  1.0 0.0908031254
H  H19  1  0.66250000  0.73010000  0.68580000  1.0 0.1080309664
H  H20  1  0.73380000  0.81480000  0.26820000  1.0 0.0908031254
H  H21  1  0.47610000  0.72450000  0.21740000  1.0 0.1080309664
H  H22  1  0.43960000  0.73190000  0.36040000  1.0 0.1013062896
H  H23  1  0.33650000  0.90150000  0.84470000  1.0 0.0808790166
H  H24  1  0.99920000  0.96570000  0.93520000  1.0 0.1013062896
H  H25  1  0.01050000  0.89860000  0.94020000  1.0 0.1080309664
H  H26  1  0.29030000  0.02640000  0.00900000  1.0 0.0746368147
H  H27  1  0.26160000  0.09410000  0.02050000  1.0 0.1013062896
H  H28  1  0.97360000  0.09290000  0.78180000  1.0 0.0808790166
H  H29  1  0.66090000  0.29690000  0.13320000  1.0 0.4114825293
H  H30  1  0.19010000  0.28910000  0.95320000  1.0 0.4044681578
H  H31  1  0.86830000  0.68790000  0.62980000  1.0 0.0808790166
H  H32  1  0.18690000  0.76250000  0.54030000  1.0 0.0908031254
H  H33  1  0.16250000  0.76990000  0.68580000  1.0 0.1080309664
H  H34  1  0.23380000  0.68520000  0.26820000  1.0 0.0908031254
H  H35  1  0.97610000  0.77550000  0.21740000  1.0 0.1080309664
H  H36  1  0.93960000  0.76810000  0.36040000  1.0 0.1013062896
H  H37  1  0.83650000  0.59850000  0.84470000  1.0 0.0808790166
H  H38  1  0.49920000  0.53430000  0.93520000  1.0 0.1013062896
H  H39  1  0.51050000  0.60140000  0.94020000  1.0 0.1080309664
H  H40  1  0.79030000  0.47360000  0.00900000  1.0 0.0746368147
H  H41  1  0.76160000  0.40590000  0.02050000  1.0 0.1013062896
H  H42  1  0.47360000  0.40710000  0.78180000  1.0 0.0808790166
H  H43  1  0.83910000  0.79690000  0.86680000  1.0 0.4114825293
H  H44  1  0.30990000  0.78910000  0.04680000  1.0 0.4044681578
H  H45  1  0.63170000  0.18790000  0.37020000  1.0 0.0808790166
H  H46  1  0.31310000  0.26250000  0.45970000  1.0 0.0908031254
H  H47  1  0.33750000  0.26990000  0.31420000  1.0 0.1080309664
H  H48  1  0.26620000  0.18520000  0.73180000  1.0 0.0908031254
H  H49  1  0.52390000  0.27550000  0.78260000  1.0 0.1080309664
H  H50  1  0.56040000  0.26810000  0.63960000  1.0 0.1013062896
H  H51  1  0.66350000  0.09850000  0.15530000  1.0 0.0808790166
H  H52  1  0.00080000  0.03430000  0.06480000  1.0 0.1013062896
H  H53  1  0.98950000  0.10140000  0.05980000  1.0 0.1080309664
H  H54  1  0.70970000  0.97360000  0.99100000  1.0 0.0746368147
H  H55  1  0.73840000  0.90590000  0.97950000  1.0 0.1013062896
H  H56  1  0.02640000  0.90710000  0.21820000  1.0 0.0808790166
C  C1  1  0.00580000  0.26450000  0.23340000  1.0 0.591689074
C  C2  1  0.98360000  0.27070000  0.32520000  1.0 -0.0093176596
C  C3  1  0.06570000  0.29710000  0.38820000  1.0 -0.1303147022
C  C4  1  0.05210000  0.30180000  0.47730000  1.0 -0.2859504805
C  C5  1  0.95120000  0.27940000  0.50200000  1.0 0.0118755596
C  C6  1  0.87730000  0.25330000  0.44170000  1.0 -0.1205396623
C  C7  1  0.89190000  0.24880000  0.35450000  1.0 -0.1083003092
C  C8  1  0.14720000  0.32870000  0.54310000  1.0 0.3754558503
C  C9  1  0.93010000  0.27900000  0.59590000  1.0 0.0118755596
C  C10  1  0.84310000  0.30340000  0.62540000  1.0 -0.2826894284
C  C11  1  0.82590000  0.29800000  0.71180000  1.0 -0.1303147022
C  C12  1  0.89090000  0.26990000  0.76730000  1.0 0.0193569386
C  C13  1  0.97880000  0.24450000  0.74220000  1.0 -0.1083003092
C  C14  1  0.99950000  0.24890000  0.65770000  1.0 -0.1967289806
C  C15  1  0.76490000  0.33490000  0.56970000  1.0 0.3907957762
C  C16  1  0.86420000  0.26400000  0.85960000  1.0 0.5968369781
C  C17  1  0.32290000  0.34960000  0.10470000  1.0 0.591689074
C  C18  1  0.32480000  0.39280000  0.10660000  1.0 -0.0200926158
C  C19  1  0.23060000  0.41460000  0.13440000  1.0 -0.1205396623
C  C20  1  0.23140000  0.45540000  0.13260000  1.0 -0.2097153426
C  C21  1  0.33670000  0.47510000  0.10910000  1.0 0.0193569386
C  C22  1  0.42990000  0.45290000  0.08240000  1.0 -0.1374301897
C  C23  1  0.42400000  0.41280000  0.08010000  1.0 -0.0759870023
C  C24  1  0.12500000  0.47730000  0.16210000  1.0 0.3492155685
C  C25  1  0.35070000  0.51910000  0.10860000  1.0 -0.0036145022
C  C26  1  0.27570000  0.53960000  0.03800000  1.0 -0.183526671
C  C27  1  0.29180000  0.58020000  0.03100000  1.0 -0.0907050227
C  C28  1  0.38220000  0.59900000  0.09700000  1.0 0.0020297964
C  C29  1  0.46200000  0.57890000  0.17180000  1.0 -0.1596140847
C  C30  1  0.44940000  0.53930000  0.17990000  1.0 -0.1922538005
C  C31  1  0.54500000  0.51920000  0.26120000  1.0 0.3329516365
C  C32  1  0.40370000  0.64350000  0.09210000  1.0 0.5644300966
C  C33  1  0.49420000  0.76450000  0.76660000  1.0 0.591689074
C  C34  1  0.51640000  0.77070000  0.67480000  1.0 -0.0093176596
C  C35  1  0.43430000  0.79710000  0.61180000  1.0 -0.1303147022
C  C36  1  0.44790000  0.80180000  0.52270000  1.0 -0.2859504805
C  C37  1  0.54880000  0.77940000  0.49800000  1.0 0.0118755596
C  C38  1  0.62270000  0.75330000  0.55830000  1.0 -0.1303147022
C  C39  1  0.60810000  0.74880000  0.64550000  1.0 -0.1083003092
C  C40  1  0.35280000  0.82870000  0.45690000  1.0 0.3754558503
C  C41  1  0.56990000  0.77900000  0.40410000  1.0 0.0118755596
C  C42  1  0.65690000  0.80340000  0.37460000  1.0 -0.2826894284
C  C43  1  0.67410000  0.79800000  0.28820000  1.0 -0.1303147022
C  C44  1  0.60910000  0.76990000  0.23270000  1.0 0.0193569386
C  C45  1  0.52120000  0.74450000  0.25780000  1.0 -0.1083003092
C  C46  1  0.50050000  0.74890000  0.34230000  1.0 -0.1967289806
C  C47  1  0.73510000  0.83490000  0.43030000  1.0 0.3907957762
C  C48  1  0.63580000  0.76400000  0.14040000  1.0 0.5968369781
C  C49  1  0.17710000  0.84960000  0.89530000  1.0 0.591689074
C  C50  1  0.17520000  0.89280000  0.89340000  1.0 -0.0200926158
C  C51  1  0.26940000  0.91460000  0.86560000  1.0 -0.1205396623
C  C52  1  0.26860000  0.95540000  0.86740000  1.0 -0.2097153426
C  C53  1  0.16330000  0.97510000  0.89090000  1.0 0.0193569386
C  C54  1  0.07010000  0.95290000  0.91760000  1.0 -0.1374301897
C  C55  1  0.07600000  0.91280000  0.91990000  1.0 -0.0759870023
C  C56  1  0.37500000  0.97730000  0.83790000  1.0 0.3492155685
C  C57  1  0.14930000  0.01910000  0.89140000  1.0 -0.0036145022
C  C58  1  0.22430000  0.03960000  0.96200000  1.0 -0.183526671
C  C59  1  0.20820000  0.08020000  0.96900000  1.0 -0.0907050227
C  C60  1  0.11780000  0.09900000  0.90300000  1.0 0.0020297964
C  C61  1  0.03800000  0.07890000  0.82820000  1.0 -0.1596140847
C  C62  1  0.05060000  0.03930000  0.82010000  1.0 -0.1922538005
C  C63  1  0.95500000  0.01920000  0.73880000  1.0 0.3329516365
C  C64  1  0.09630000  0.14350000  0.90790000  1.0 0.5644300966
C  C65  1  0.99420000  0.73550000  0.76660000  1.0 0.591689074
C  C66  1  0.01640000  0.72930000  0.67480000  1.0 -0.0093176596
C  C67  1  0.93430000  0.70290000  0.61180000  1.0 -0.1303147022
C  C68  1  0.94790000  0.69820000  0.52270000  1.0 -0.2859504805
C  C69  1  0.04880000  0.72060000  0.49800000  1.0 0.0118755596
C  C70  1  0.12270000  0.74670000  0.55830000  1.0 -0.1303147022
C  C71  1  0.10810000  0.75120000  0.64550000  1.0 -0.1083003092
C  C72  1  0.85280000  0.67130000  0.45690000  1.0 0.3754558503
C  C73  1  0.06990000  0.72100000  0.40410000  1.0 0.0118755596
C  C74  1  0.15690000  0.69660000  0.37460000  1.0 -0.2826894284
C  C75  1  0.17410000  0.70200000  0.28820000  1.0 -0.1303147022
C  C76  1  0.10910000  0.73010000  0.23270000  1.0 0.0193569386
C  C77  1  0.02120000  0.75550000  0.25780000  1.0 -0.1083003092
C  C78  1  0.00050000  0.75110000  0.34230000  1.0 -0.1967289806
C  C79  1  0.23510000  0.66510000  0.43030000  1.0 0.3907957762
C  C80  1  0.13580000  0.73600000  0.14040000  1.0 0.5968369781
C  C81  1  0.67710000  0.65040000  0.89530000  1.0 0.591689074
C  C82  1  0.67520000  0.60720000  0.89340000  1.0 -0.0200926158
C  C83  1  0.76940000  0.58540000  0.86560000  1.0 -0.1205396623
C  C84  1  0.76860000  0.54460000  0.86740000  1.0 -0.2097153426
C  C85  1  0.66330000  0.52490000  0.89090000  1.0 0.0193569386
C  C86  1  0.57010000  0.54710000  0.91760000  1.0 -0.1374301897
C  C87  1  0.57600000  0.58720000  0.91990000  1.0 -0.0759870023
C  C88  1  0.87500000  0.52270000  0.83790000  1.0 0.3492155685
C  C89  1  0.64930000  0.48090000  0.89140000  1.0 -0.0036145022
C  C90  1  0.72430000  0.46040000  0.96200000  1.0 -0.183526671
C  C91  1  0.70820000  0.41980000  0.96900000  1.0 -0.0907050227
C  C92  1  0.61780000  0.40100000  0.90300000  1.0 0.0020297964
C  C93  1  0.53800000  0.42110000  0.82820000  1.0 -0.1596140847
C  C94  1  0.55060000  0.46070000  0.82010000  1.0 -0.1922538005
C  C95  1  0.45500000  0.48080000  0.73880000  1.0 0.3329516365
C  C96  1  0.59630000  0.35650000  0.90790000  1.0 0.5644300966
C  C97  1  0.50580000  0.23550000  0.23340000  1.0 0.591689074
C  C98  1  0.48360000  0.22930000  0.32520000  1.0 -0.0093176596
C  C99  1  0.56570000  0.20290000  0.38820000  1.0 -0.1303147022
C  C100  1  0.55210000  0.19820000  0.47730000  1.0 -0.2859504805
C  C101  1  0.45120000  0.22060000  0.50200000  1.0 0.0118755596
C  C102  1  0.37730000  0.24670000  0.44170000  1.0 -0.1303147022
C  C103  1  0.39190000  0.25120000  0.35450000  1.0 -0.1083003092
C  C104  1  0.64720000  0.17130000  0.54310000  1.0 0.3754558503
C  C105  1  0.43010000  0.22100000  0.59590000  1.0 0.0118755596
C  C106  1  0.34310000  0.19660000  0.62540000  1.0 -0.2826894284
C  C107  1  0.32590000  0.20200000  0.71180000  1.0 -0.1303147022
C  C108  1  0.39090000  0.23010000  0.76730000  1.0 0.0193569386
C  C109  1  0.47880000  0.25550000  0.74220000  1.0 -0.1083003092
C  C110  1  0.49950000  0.25110000  0.65770000  1.0 -0.1967289806
C  C111  1  0.26490000  0.16510000  0.56970000  1.0 0.3907957762
C  C112  1  0.36420000  0.23600000  0.85960000  1.0 0.5968369781
C  C113  1  0.82290000  0.15040000  0.10470000  1.0 0.591689074
C  C114  1  0.82480000  0.10720000  0.10660000  1.0 -0.0200926158
C  C115  1  0.73060000  0.08540000  0.13440000  1.0 -0.1205396623
C  C116  1  0.73140000  0.04460000  0.13260000  1.0 -0.2097153426
C  C117  1  0.83670000  0.02490000  0.10910000  1.0 0.0193569386
C  C118  1  0.92990000  0.04710000  0.08240000  1.0 -0.1374301897
C  C119  1  0.92400000  0.08720000  0.08010000  1.0 -0.0759870023
C  C120  1  0.62500000  0.02270000  0.16210000  1.0 0.3492155685
C  C121  1  0.85070000  0.98090000  0.10860000  1.0 -0.0036145022
C  C122  1  0.77570000  0.96040000  0.03800000  1.0 -0.183526671
C  C123  1  0.79180000  0.91980000  0.03100000  1.0 -0.0907050227
C  C124  1  0.88220000  0.90100000  0.09700000  1.0 0.0020297964
C  C125  1  0.96200000  0.92110000  0.17180000  1.0 -0.1596140847
C  C126  1  0.94940000  0.96070000  0.17990000  1.0 -0.1922538005
C  C127  1  0.04500000  0.98080000  0.26120000  1.0 0.3329516365
C  C128  1  0.90370000  0.85650000  0.09210000  1.0 0.5644300966
O  O1  1  0.11840000  0.27992000  0.22360000  1.0 -0.5508675188
O  O2  1  0.92110000  0.24530000  0.17510000  1.0 -0.6249971897
O  O3  1  0.76710000  0.28195000  0.87060000  1.0 -0.4907090277
O  O4  1  0.94440000  0.24250000  0.91720000  1.0 -0.5924424142
O  O5  1  0.23360000  0.33225000  0.13550000  1.0 -0.5365342707
O  O6  1  0.41090000  0.33333333  0.07460000  1.0 -0.5308861644
O  O7  1  0.50560000  0.65860000  0.14750000  1.0 -0.5508675188
O  O8  1  0.32380000  0.66040000  0.03060000  1.0 -0.4993799538
O  O9  1  0.37680000  0.72212000  0.91740000  1.0 -0.8380325944
O  O10  1  0.76270000  0.72869000  0.99570000  1.0 -0.8488057167
O  O11  1  0.38160000  0.77992000  0.77640000  1.0 -0.5508675188
O  O12  1  0.57890000  0.74530000  0.82490000  1.0 -0.6249971897
O  O13  1  0.73290000  0.78195000  0.12940000  1.0 -0.4907090277
O  O14  1  0.55560000  0.74250000  0.08280000  1.0 -0.5924424142
O  O15  1  0.26640000  0.83225000  0.86450000  1.0 -0.5365342707
O  O16  1  0.08910000  0.83333000  0.92540000  1.0 -0.5308861644
O  O17  1  0.99440000  0.15860000  0.85250000  1.0 -0.5508675188
O  O18  1  0.17620000  0.16040000  0.96940000  1.0 -0.4993799538
O  O19  1  0.12320000  0.22212000  0.08260000  1.0 -0.8380325944
O  O20  1  0.73730000  0.22869000  0.00430000  1.0 -0.8488057167
O  O21  1  0.88160000  0.72008000  0.77640000  1.0 -0.5508675188
O  O22  1  0.07890000  0.75470000  0.82490000  1.0 -0.6249971897
O  O23  1  0.23290000  0.71805000  0.12940000  1.0 -0.4907090277
O  O24  1  0.05560000  0.75750000  0.08280000  1.0 -0.5924424142
O  O25  1  0.76640000  0.66775000  0.86450000  1.0 -0.5365342707
O  O26  1  0.58910000  0.66666667  0.92540000  1.0 -0.5308861644
O  O27  1  0.49440000  0.34140000  0.85250000  1.0 -0.5508675188
O  O28  1  0.67620000  0.33960000  0.96940000  1.0 -0.4993799538
O  O29  1  0.62320000  0.27788000  0.08260000  1.0 -0.8380325944
O  O30  1  0.23730000  0.27131000  0.00430000  1.0 -0.8488057167
O  O31  1  0.61840000  0.22008000  0.22360000  1.0 -0.5508675188
O  O32  1  0.42110000  0.25470000  0.17510000  1.0 -0.6249971897
O  O33  1  0.26710000  0.21805000  0.87060000  1.0 -0.4907090277
O  O34  1  0.44440000  0.25750000  0.91720000  1.0 -0.5924424142
O  O35  1  0.73360000  0.16775000  0.13550000  1.0 -0.5365342707
O  O36  1  0.91090000  0.16667000  0.07460000  1.0 -0.5308861644
O  O37  1  0.00560000  0.84140000  0.14750000  1.0 -0.5508675188
O  O38  1  0.82380000  0.83960000  0.03060000  1.0 -0.4993799538
O  O39  1  0.87680000  0.77788000  0.91740000  1.0 -0.8380325944
O  O40  1  0.26270000  0.77131000  0.99570000  1.0 -0.8488057167
F  F1  1  0.23770000  0.34510000  0.50830000  1.0 -0.0093176596
F  F2  1  0.08480000  0.35570000  0.57770000  1.0 -0.0200926158
F  F3  1  0.21920000  0.30830000  0.61730000  1.0 0.0020297964
F  F4  1  0.83080000  0.35710000  0.52610000  1.0 -0.0093176596
F  F5  1  0.66530000  0.31850000  0.49870000  1.0 -0.0575051433
F  F6  1  0.69500000  0.35790000  0.60800000  1.0 0.0534215025
F  F7  1  0.04810000  0.49950000  0.09490000  1.0 -0.0301653423
F  F8  1  0.03980000  0.45420000  0.18880000  1.0 0.0398742497
F  F9  1  0.17730000  0.50230000  0.23000000  1.0 -0.0093176596
F  F10  1  0.47890000  0.49260000  0.29740000  1.0 -0.0200926158
F  F11  1  0.64590000  0.50140000  0.23640000  1.0 0.0020297964
F  F12  1  0.60300000  0.54490000  0.32650000  1.0 0.0020297964
F  F13  1  0.11400000  0.36630000  0.51900000  1.0 0.0118755596
F  F14  1  0.14300000  0.32540000  0.62790000  1.0 0.0118755596
F  F15  1  0.27410000  0.32510000  0.53910000  1.0 -0.0301653423
F  F16  1  0.80000000  0.37060000  0.60920000  1.0 -0.0093176596
F  F17  1  0.63260000  0.33370000  0.56150000  1.0 0.0118755596
F  F18  1  0.78000000  0.33960000  0.48770000  1.0 0.0118755596
F  F19  1  0.12600000  0.46790000  0.24800000  1.0 0.0193569386
F  F20  1  0.00060000  0.46920000  0.11000000  1.0 -0.0036145022
F  F21  1  0.14000000  0.51580000  0.16100000  1.0 0.0118755596
F  F22  1  0.51400000  0.52800000  0.33840000  1.0 0.0118755596
F  F23  1  0.54000000  0.48050000  0.25200000  1.0 0.0118755596
F  F24  1  0.67300000  0.53000000  0.27200000  1.0 0.0338878485
F  F25  1  0.26230000  0.84510000  0.49170000  1.0 -0.0093176596
F  F26  1  0.41520000  0.85570000  0.42230000  1.0 -0.0200926158
F  F27  1  0.28080000  0.80830000  0.38270000  1.0 -0.0036145022
F  F28  1  0.66920000  0.85710000  0.47390000  1.0 -0.0093176596
F  F29  1  0.83470000  0.81850000  0.50130000  1.0 -0.0575051433
F  F30  1  0.80500000  0.85790000  0.39200000  1.0 0.0556184962
F  F31  1  0.45190000  0.99950000  0.90510000  1.0 -0.0301653423
F  F32  1  0.46020000  0.95420000  0.81120000  1.0 0.0398742497
F  F33  1  0.32270000  0.00230000  0.77000000  1.0 -0.0093176596
F  F34  1  0.02110000  0.99260000  0.70260000  1.0 -0.0200926158
F  F35  1  0.85410000  0.00140000  0.76360000  1.0 0.0020297964
F  F36  1  0.89700000  0.04490000  0.67350000  1.0 0.0118755596
F  F37  1  0.38600000  0.86630000  0.48100000  1.0 0.0118755596
F  F38  1  0.35700000  0.82540000  0.37210000  1.0 0.0020297964
F  F39  1  0.22590000  0.82510000  0.46090000  1.0 -0.0301653423
F  F40  1  0.70000000  0.87060000  0.39080000  1.0 -0.0093176596
F  F41  1  0.86740000  0.83370000  0.43850000  1.0 0.0118755596
F  F42  1  0.72000000  0.83960000  0.51230000  1.0 0.0118755596
F  F43  1  0.37400000  0.96790000  0.75200000  1.0 0.0193569386
F  F44  1  0.49940000  0.96920000  0.89000000  1.0 -0.0036145022
F  F45  1  0.36000000  0.01580000  0.83900000  1.0 0.0118755596
F  F46  1  0.98600000  0.02800000  0.66160000  1.0 0.0020297964
F  F47  1  0.96000000  0.98050000  0.74800000  1.0 0.0193569386
F  F48  1  0.82700000  0.03000000  0.72800000  1.0 0.0338878485
F  F49  1  0.76230000  0.65490000  0.49170000  1.0 -0.0093176596
F  F50  1  0.91520000  0.64430000  0.42230000  1.0 -0.0200926158
F  F51  1  0.78080000  0.69170000  0.38270000  1.0 0.0020297964
F  F52  1  0.16920000  0.64290000  0.47390000  1.0 -0.0036145022
F  F53  1  0.33470000  0.68150000  0.50130000  1.0 -0.0575051433
F  F54  1  0.30500000  0.64210000  0.39200000  1.0 0.0556184962
F  F55  1  0.95190000  0.50050000  0.90510000  1.0 -0.0301653423
F  F56  1  0.96020000  0.54580000  0.81120000  1.0 0.0398742497
F  F57  1  0.82270000  0.49770000  0.77000000  1.0 -0.0093176596
F  F58  1  0.52110000  0.50740000  0.70260000  1.0 -0.0200926158
F  F59  1  0.35410000  0.49860000  0.76360000  1.0 0.0020297964
F  F60  1  0.39700000  0.45510000  0.67350000  1.0 0.0020297964
F  F61  1  0.88600000  0.63370000  0.48100000  1.0 0.0118755596
F  F62  1  0.85700000  0.67460000  0.37210000  1.0 0.0020297964
F  F63  1  0.72590000  0.67490000  0.46090000  1.0 -0.0301653423
F  F64  1  0.20000000  0.62940000  0.39080000  1.0 -0.0093176596
F  F65  1  0.36740000  0.66630000  0.43850000  1.0 0.0118755596
F  F66  1  0.22000000  0.66040000  0.51230000  1.0 0.0118755596
F  F67  1  0.87400000  0.53210000  0.75200000  1.0 0.0193569386
F  F68  1  0.99940000  0.53080000  0.89000000  1.0 -0.0036145022
F  F69  1  0.86000000  0.48420000  0.83900000  1.0 0.0118755596
F  F70  1  0.48600000  0.47200000  0.66160000  1.0 0.0118755596
F  F71  1  0.46000000  0.51950000  0.74800000  1.0 0.0118755596
F  F72  1  0.32700000  0.47000000  0.72800000  1.0 0.0338878485
F  F73  1  0.73770000  0.15490000  0.50830000  1.0 -0.0093176596
F  F74  1  0.58480000  0.14430000  0.57770000  1.0 -0.0200926158
F  F75  1  0.71920000  0.19170000  0.61730000  1.0 0.0020297964
F  F76  1  0.33080000  0.14290000  0.52610000  1.0 -0.0036145022
F  F77  1  0.16530000  0.18150000  0.49870000  1.0 -0.0575051433
F  F78  1  0.19500000  0.14210000  0.60800000  1.0 0.0556184962
F  F79  1  0.54810000  0.00050000  0.09490000  1.0 -0.0301653423
F  F80  1  0.53980000  0.04580000  0.18880000  1.0 0.0398742497
F  F81  1  0.67730000  0.99770000  0.23000000  1.0 -0.0093176596
F  F82  1  0.97890000  0.00740000  0.29740000  1.0 -0.0200926158
F  F83  1  0.14590000  0.99860000  0.23640000  1.0 0.0020297964
F  F84  1  0.10300000  0.95510000  0.32650000  1.0 0.0020297964
F  F85  1  0.61400000  0.13370000  0.51900000  1.0 0.0118755596
F  F86  1  0.64300000  0.17460000  0.62790000  1.0 0.0020297964
F  F87  1  0.77410000  0.17490000  0.53910000  1.0 -0.0301653423
F  F88  1  0.30000000  0.12940000  0.60920000  1.0 -0.0093176596
F  F89  1  0.13260000  0.16630000  0.56150000  1.0 0.0118755596
F  F90  1  0.28000000  0.16040000  0.48770000  1.0 0.0118755596
F  F91  1  0.62600000  0.03210000  0.24800000  1.0 0.0118755596
F  F92  1  0.50060000  0.03080000  0.11000000  1.0 -0.0036145022
F  F93  1  0.64000000  0.98420000  0.16100000  1.0 0.0118755596
F  F94  1  0.01400000  0.97200000  0.33840000  1.0 0.0118755596
F  F95  1  0.04000000  0.01950000  0.25200000  1.0 0.0118755596
F  F96  1  0.17300000  0.97000000  0.27200000  1.0 0.0398742497
