# DDEC6 charges by PACMAN v1.1 (https://github.com/mtap-research/PACMAN-charge/)
data_ZIWKUO_ASR_pacman
_symmetry_space_group_name_H-M   'P 1'
_cell_length_a   10.44120000
_cell_length_b   32.71730000
_cell_length_c   15.17350000
_cell_angle_alpha   90.00000000
_cell_angle_beta   105.09600000
_cell_angle_gamma   90.00000000
_symmetry_Int_Tables_number   1
_chemical_formula_structural   Cu3H14C32(O5F12)2
_chemical_formula_sum   'Cu12 H56 C128 O40 F96'
_cell_volume   5004.51259533
_cell_formula_units_Z   4
loop_
 _symmetry_equiv_pos_site_id
 _symmetry_equiv_pos_as_xyz
  1  'x, y, z'
loop_
 _atom_site_type_symbol
 _atom_site_label
 _atom_site_symmetry_multiplicity
 _atom_site_fract_x
 _atom_site_fract_y
 _atom_site_fract_z
 _atom_site_occupancy
 _atom_site_charge
Cu  Cu1  1  0.24906000  0.72224000  0.59656000  1.0 0.9601028093
Cu  Cu2  1  0.50741000  0.71654000  0.52731000  1.0 0.9601028093
Cu  Cu3  1  0.97760000  0.72058000  0.66092000  1.0 0.9245961288
Cu  Cu4  1  0.25094000  0.22224000  0.40344000  1.0 0.9601028093
Cu  Cu5  1  0.99259000  0.21654000  0.47269000  1.0 0.9601028093
Cu  Cu6  1  0.52240000  0.22058000  0.33908000  1.0 0.9245961288
Cu  Cu7  1  0.75094000  0.27776000  0.40344000  1.0 0.9601028093
Cu  Cu8  1  0.49259000  0.28346000  0.47269000  1.0 0.9601028093
Cu  Cu9  1  0.02240000  0.27942000  0.33908000  1.0 0.9245961288
Cu  Cu10  1  0.74906000  0.77776000  0.59656000  1.0 0.9601028093
Cu  Cu11  1  0.00741000  0.78346000  0.52731000  1.0 0.9601028093
Cu  Cu12  1  0.47760000  0.77942000  0.66092000  1.0 0.9252424219
H  H1  1  0.01880000  0.70700000  0.50820000  1.0 0.4138029197
H  H2  1  0.47980000  0.70270000  0.68580000  1.0 0.4154959896
H  H3  1  0.39860000  0.60480000  0.37950000  1.0 0.1025970936
H  H4  1  0.19230000  0.51840000  0.54160000  1.0 0.081933907
H  H5  1  0.23010000  0.58600000  0.58640000  1.0 0.1025970936
H  H6  1  0.99270000  0.41310000  0.31940000  1.0 0.081933907
H  H7  1  0.37360000  0.38680000  0.44730000  1.0 0.1117989968
H  H8  1  0.41970000  0.45630000  0.46730000  1.0 0.1025970936
H  H9  1  0.55670000  0.68600000  0.27470000  1.0 0.0894745982
H  H10  1  0.88420000  0.75950000  0.18820000  1.0 0.0894745982
H  H11  1  0.85910000  0.76640000  0.33560000  1.0 0.1117989968
H  H12  1  0.93140000  0.68880000  0.91220000  1.0 0.0894745982
H  H13  1  0.63400000  0.77140000  0.85910000  1.0 0.1117989968
H  H14  1  0.60500000  0.76020000  0.00280000  1.0 0.0894745982
H  H15  1  0.48120000  0.20700000  0.49180000  1.0 0.4138029197
H  H16  1  0.02020000  0.20270000  0.31420000  1.0 0.4138029197
H  H17  1  0.10140000  0.10480000  0.62050000  1.0 0.1025970936
H  H18  1  0.30770000  0.01840000  0.45840000  1.0 0.081933907
H  H19  1  0.26990000  0.08600000  0.41360000  1.0 0.1025970936
H  H20  1  0.50730000  0.91310000  0.68060000  1.0 0.081933907
H  H21  1  0.12640000  0.88680000  0.55270000  1.0 0.1117989968
H  H22  1  0.08030000  0.95630000  0.53270000  1.0 0.1025970936
H  H23  1  0.94330000  0.18600000  0.72530000  1.0 0.0894745982
H  H24  1  0.61580000  0.25950000  0.81180000  1.0 0.0894745982
H  H25  1  0.64090000  0.26640000  0.66440000  1.0 0.1117989968
H  H26  1  0.56860000  0.18880000  0.08780000  1.0 0.0894745982
H  H27  1  0.86600000  0.27140000  0.14090000  1.0 0.1117989968
H  H28  1  0.89500000  0.26020000  0.99720000  1.0 0.0894745982
H  H29  1  0.98120000  0.29300000  0.49180000  1.0 0.4138029197
H  H30  1  0.52020000  0.29730000  0.31420000  1.0 0.4138029197
H  H31  1  0.60140000  0.39520000  0.62050000  1.0 0.1025970936
H  H32  1  0.80770000  0.48160000  0.45840000  1.0 0.081933907
H  H33  1  0.76990000  0.41400000  0.41360000  1.0 0.1117989968
H  H34  1  0.00730000  0.58690000  0.68060000  1.0 0.081933907
H  H35  1  0.62640000  0.61320000  0.55270000  1.0 0.1117989968
H  H36  1  0.58030000  0.54370000  0.53270000  1.0 0.1025970936
H  H37  1  0.44330000  0.31400000  0.72530000  1.0 0.0894745982
H  H38  1  0.11580000  0.24050000  0.81180000  1.0 0.0894745982
H  H39  1  0.14090000  0.23360000  0.66440000  1.0 0.1117989968
H  H40  1  0.06860000  0.31120000  0.08780000  1.0 0.0894745982
H  H41  1  0.36600000  0.22860000  0.14090000  1.0 0.1117989968
H  H42  1  0.39500000  0.23980000  0.99720000  1.0 0.0894745982
H  H43  1  0.51880000  0.79300000  0.50820000  1.0 0.4138029197
H  H44  1  0.97980000  0.79730000  0.68580000  1.0 0.4154959896
H  H45  1  0.89860000  0.89520000  0.37950000  1.0 0.1025970936
H  H46  1  0.69230000  0.98160000  0.54160000  1.0 0.081933907
H  H47  1  0.73010000  0.91400000  0.58640000  1.0 0.1025970936
H  H48  1  0.49270000  0.08690000  0.31940000  1.0 0.081933907
H  H49  1  0.87360000  0.11320000  0.44730000  1.0 0.1117989968
H  H50  1  0.91970000  0.04370000  0.46730000  1.0 0.1025970936
H  H51  1  0.05670000  0.81400000  0.27470000  1.0 0.0894745982
H  H52  1  0.38420000  0.74050000  0.18820000  1.0 0.0894745982
H  H53  1  0.35910000  0.73360000  0.33560000  1.0 0.1117989968
H  H54  1  0.43140000  0.81120000  0.91220000  1.0 0.0894745982
H  H55  1  0.13400000  0.72860000  0.85910000  1.0 0.1117989968
H  H56  1  0.10500000  0.73980000  0.00280000  1.0 0.0894745982
C  C1  1  0.33500000  0.64648000  0.51210000  1.0 0.5894711593
C  C2  1  0.31170000  0.60255000  0.48390000  1.0 0.0120595206
C  C3  1  0.35270000  0.58732000  0.41100000  1.0 -0.1491606908
C  C4  1  0.32830000  0.54718000  0.38250000  1.0 -0.2161797306
C  C5  1  0.26510000  0.52077000  0.43030000  1.0 -0.0012344571
C  C6  1  0.23180000  0.53620000  0.50680000  1.0 -0.2288458517
C  C7  1  0.25420000  0.57636000  0.53380000  1.0 -0.0970034638
C  C8  1  0.37490000  0.53210000  0.30180000  1.0 0.3630174974
C  C9  1  0.23390000  0.47660000  0.40630000  1.0 0.0120595206
C  C10  1  0.10770000  0.46350000  0.36390000  1.0 -0.2288458517
C  C11  1  0.07950000  0.42167000  0.35060000  1.0 -0.1087414016
C  C12  1  0.17670000  0.39321000  0.38240000  1.0 0.0189569702
C  C13  1  0.30510000  0.40630000  0.42580000  1.0 -0.085109601
C  C14  1  0.33230000  0.44760000  0.43750000  1.0 -0.1381829681
C  C15  1  0.99960000  0.49300000  0.32750000  1.0 0.3711643446
C  C16  1  0.14660000  0.34792000  0.37350000  1.0 0.5660652498
C  C17  1  0.68470000  0.73228000  0.41400000  1.0 0.6100110391
C  C18  1  0.70460000  0.72691000  0.31970000  1.0 0.0189569702
C  C19  1  0.62320000  0.70127000  0.25700000  1.0 -0.1491606908
C  C20  1  0.63660000  0.69735000  0.16880000  1.0 -0.2601128726
C  C21  1  0.73520000  0.71890000  0.14160000  1.0 0.0014194583
C  C22  1  0.81670000  0.74440000  0.20530000  1.0 -0.1764886698
C  C23  1  0.80210000  0.74860000  0.29350000  1.0 -0.1087414016
C  C24  1  0.53920000  0.67141000  0.10190000  1.0 0.3910377228
C  C25  1  0.75170000  0.71970000  0.04680000  1.0 -0.0012344571
C  C26  1  0.85240000  0.69850000  0.01990000  1.0 -0.2601128726
C  C27  1  0.86580000  0.70399000  0.93140000  1.0 -0.1381829681
C  C28  1  0.78510000  0.73124000  0.87020000  1.0 0.0014194583
C  C29  1  0.68920000  0.75240000  0.89880000  1.0 -0.1087414016
C  C30  1  0.67340000  0.74590000  0.98520000  1.0 -0.1635093462
C  C31  1  0.94990000  0.67090000  0.08380000  1.0 0.3711643446
C  C32  1  0.81110000  0.73841000  0.77950000  1.0 0.6045693138
C  C33  1  0.16500000  0.14648000  0.48790000  1.0 0.5894711593
C  C34  1  0.18830000  0.10255000  0.51610000  1.0 0.0120595206
C  C35  1  0.14730000  0.08732000  0.58900000  1.0 -0.1491606908
C  C36  1  0.17170000  0.04718000  0.61750000  1.0 -0.214083398
C  C37  1  0.23490000  0.02077000  0.56970000  1.0 -0.0012344571
C  C38  1  0.26820000  0.03620000  0.49320000  1.0 -0.2288458517
C  C39  1  0.24580000  0.07636000  0.46620000  1.0 -0.0970034638
C  C40  1  0.12510000  0.03210000  0.69820000  1.0 0.3630174974
C  C41  1  0.26610000  0.97660000  0.59370000  1.0 0.0120595206
C  C42  1  0.39230000  0.96350000  0.63610000  1.0 -0.2288458517
C  C43  1  0.42050000  0.92167000  0.64940000  1.0 -0.1087414016
C  C44  1  0.32330000  0.89321000  0.61760000  1.0 0.0189569702
C  C45  1  0.19490000  0.90630000  0.57420000  1.0 -0.0840477666
C  C46  1  0.16770000  0.94760000  0.56250000  1.0 -0.1381829681
C  C47  1  0.50040000  0.99300000  0.67250000  1.0 0.3711643446
C  C48  1  0.35340000  0.84792000  0.62650000  1.0 0.5660652498
C  C49  1  0.81530000  0.23228000  0.58600000  1.0 0.6100110391
C  C50  1  0.79540000  0.22691000  0.68030000  1.0 0.0189569702
C  C51  1  0.87680000  0.20127000  0.74300000  1.0 -0.1491606908
C  C52  1  0.86340000  0.19735000  0.83120000  1.0 -0.2601128726
C  C53  1  0.76480000  0.21890000  0.85840000  1.0 0.0014194583
C  C54  1  0.68330000  0.24440000  0.79470000  1.0 -0.1764886698
C  C55  1  0.69790000  0.24860000  0.70650000  1.0 -0.1087414016
C  C56  1  0.96080000  0.17141000  0.89810000  1.0 0.3910377228
C  C57  1  0.74830000  0.21970000  0.95320000  1.0 -0.0089323186
C  C58  1  0.64760000  0.19850000  0.98010000  1.0 -0.2601128726
C  C59  1  0.63420000  0.20399000  0.06860000  1.0 -0.1381829681
C  C60  1  0.71490000  0.23124000  0.12980000  1.0 0.0014194583
C  C61  1  0.81080000  0.25240000  0.10120000  1.0 -0.1087414016
C  C62  1  0.82660000  0.24590000  0.01480000  1.0 -0.1635093462
C  C63  1  0.55010000  0.17090000  0.91620000  1.0 0.376532642
C  C64  1  0.68890000  0.23841000  0.22050000  1.0 0.6045693138
C  C65  1  0.66500000  0.35352000  0.48790000  1.0 0.5894711593
C  C66  1  0.68830000  0.39745000  0.51610000  1.0 0.0120595206
C  C67  1  0.64730000  0.41268000  0.58900000  1.0 -0.1491606908
C  C68  1  0.67170000  0.45282000  0.61750000  1.0 -0.2161797306
C  C69  1  0.73490000  0.47923000  0.56970000  1.0 -0.0012344571
C  C70  1  0.76820000  0.46380000  0.49320000  1.0 -0.2288458517
C  C71  1  0.74580000  0.42364000  0.46620000  1.0 -0.0970034638
C  C72  1  0.62510000  0.46790000  0.69820000  1.0 0.3630174974
C  C73  1  0.76610000  0.52340000  0.59370000  1.0 0.0120595206
C  C74  1  0.89230000  0.53650000  0.63610000  1.0 -0.2288458517
C  C75  1  0.92050000  0.57833000  0.64940000  1.0 -0.1087414016
C  C76  1  0.82330000  0.60679000  0.61760000  1.0 0.0189569702
C  C77  1  0.69490000  0.59370000  0.57420000  1.0 -0.0840477666
C  C78  1  0.66770000  0.55240000  0.56250000  1.0 -0.1381829681
C  C79  1  0.00040000  0.50700000  0.67250000  1.0 0.3711643446
C  C80  1  0.85340000  0.65208000  0.62650000  1.0 0.5660652498
C  C81  1  0.31530000  0.26772000  0.58600000  1.0 0.6100110391
C  C82  1  0.29540000  0.27309000  0.68030000  1.0 0.0189569702
C  C83  1  0.37680000  0.29873000  0.74300000  1.0 -0.1491606908
C  C84  1  0.36340000  0.30265000  0.83120000  1.0 -0.2601128726
C  C85  1  0.26480000  0.28110000  0.85840000  1.0 0.0014194583
C  C86  1  0.18330000  0.25560000  0.79470000  1.0 -0.1764886698
C  C87  1  0.19790000  0.25140000  0.70650000  1.0 -0.1087414016
C  C88  1  0.46080000  0.32859000  0.89810000  1.0 0.3910377228
C  C89  1  0.24830000  0.28030000  0.95320000  1.0 -0.0089323186
C  C90  1  0.14760000  0.30150000  0.98010000  1.0 -0.2601128726
C  C91  1  0.13420000  0.29601000  0.06860000  1.0 -0.1381829681
C  C92  1  0.21490000  0.26876000  0.12980000  1.0 0.0014194583
C  C93  1  0.31080000  0.24760000  0.10120000  1.0 -0.1087414016
C  C94  1  0.32660000  0.25410000  0.01480000  1.0 -0.1635093462
C  C95  1  0.05010000  0.32910000  0.91620000  1.0 0.376532642
C  C96  1  0.18890000  0.26159000  0.22050000  1.0 0.6045693138
C  C97  1  0.83500000  0.85352000  0.51210000  1.0 0.5894711593
C  C98  1  0.81170000  0.89745000  0.48390000  1.0 0.0120595206
C  C99  1  0.85270000  0.91268000  0.41100000  1.0 -0.1491606908
C  C100  1  0.82830000  0.95282000  0.38250000  1.0 -0.214083398
C  C101  1  0.76510000  0.97923000  0.43030000  1.0 -0.0012344571
C  C102  1  0.73180000  0.96380000  0.50680000  1.0 -0.2288458517
C  C103  1  0.75420000  0.92364000  0.53380000  1.0 -0.0970034638
C  C104  1  0.87490000  0.96790000  0.30180000  1.0 0.3630174974
C  C105  1  0.73390000  0.02340000  0.40630000  1.0 0.0120595206
C  C106  1  0.60770000  0.03650000  0.36390000  1.0 -0.2288458517
C  C107  1  0.57950000  0.07833000  0.35060000  1.0 -0.1087414016
C  C108  1  0.67670000  0.10679000  0.38240000  1.0 0.0189569702
C  C109  1  0.80510000  0.09370000  0.42580000  1.0 -0.085109601
C  C110  1  0.83230000  0.05240000  0.43750000  1.0 -0.1381829681
C  C111  1  0.49960000  0.00700000  0.32750000  1.0 0.3711643446
C  C112  1  0.64660000  0.15208000  0.37350000  1.0 0.5660652498
C  C113  1  0.18470000  0.76772000  0.41400000  1.0 0.6100110391
C  C114  1  0.20460000  0.77309000  0.31970000  1.0 0.0189569702
C  C115  1  0.12320000  0.79873000  0.25700000  1.0 -0.1491606908
C  C116  1  0.13660000  0.80265000  0.16880000  1.0 -0.2601128726
C  C117  1  0.23520000  0.78110000  0.14160000  1.0 0.0014194583
C  C118  1  0.31670000  0.75560000  0.20530000  1.0 -0.1764886698
C  C119  1  0.30210000  0.75140000  0.29350000  1.0 -0.1087414016
C  C120  1  0.03920000  0.82859000  0.10190000  1.0 0.3910377228
C  C121  1  0.25170000  0.78030000  0.04680000  1.0 -0.0089323186
C  C122  1  0.35240000  0.80150000  0.01990000  1.0 -0.2601128726
C  C123  1  0.36580000  0.79601000  0.93140000  1.0 -0.1381829681
C  C124  1  0.28510000  0.76876000  0.87020000  1.0 0.0014194583
C  C125  1  0.18920000  0.74760000  0.89880000  1.0 -0.1087414016
C  C126  1  0.17340000  0.75410000  0.98520000  1.0 -0.1655234268
C  C127  1  0.44990000  0.82910000  0.08380000  1.0 0.3711643446
C  C128  1  0.31110000  0.76159000  0.77950000  1.0 0.6045693138
O  O1  1  0.25330000  0.66266000  0.54980000  1.0 -0.547978299
O  O2  1  0.43460000  0.66284000  0.49480000  1.0 -0.5166740439
O  O3  1  0.02220000  0.33833000  0.34040000  1.0 -0.5434379002
O  O4  1  0.23760000  0.32272000  0.39670000  1.0 -0.580272021
O  O5  1  0.58120000  0.71516000  0.42500000  1.0 -0.5166740439
O  O6  1  0.76690000  0.75265000  0.47150000  1.0 -0.6119878015
O  O7  1  0.91370000  0.72125000  0.76840000  1.0 -0.5070354959
O  O8  1  0.73170000  0.76026000  0.72100000  1.0 -0.5956838599
O  O9  1  0.05870000  0.72625000  0.55920000  1.0 -0.822597476
O  O10  1  0.43980000  0.72189000  0.63460000  1.0 -0.843758153
O  O11  1  0.24670000  0.16266000  0.45020000  1.0 -0.547978299
O  O12  1  0.06540000  0.16284000  0.50520000  1.0 -0.5166740439
O  O13  1  0.47780000  0.83833000  0.65960000  1.0 -0.5434379002
O  O14  1  0.26240000  0.82272000  0.60330000  1.0 -0.580272021
O  O15  1  0.91880000  0.21516000  0.57500000  1.0 -0.5166740439
O  O16  1  0.73310000  0.25265000  0.52850000  1.0 -0.6119878015
O  O17  1  0.58630000  0.22125000  0.23160000  1.0 -0.5070354959
O  O18  1  0.76830000  0.26026000  0.27900000  1.0 -0.5956838599
O  O19  1  0.44130000  0.22625000  0.44080000  1.0 -0.822597476
O  O20  1  0.06020000  0.22189000  0.36540000  1.0 -0.843758153
O  O21  1  0.74670000  0.33734000  0.45020000  1.0 -0.547978299
O  O22  1  0.56540000  0.33716000  0.50520000  1.0 -0.5166740439
O  O23  1  0.97780000  0.66167000  0.65960000  1.0 -0.5434379002
O  O24  1  0.76240000  0.67728000  0.60330000  1.0 -0.580272021
O  O25  1  0.41880000  0.28484000  0.57500000  1.0 -0.5166740439
O  O26  1  0.23310000  0.24735000  0.52850000  1.0 -0.6119878015
O  O27  1  0.08630000  0.27875000  0.23160000  1.0 -0.5070354959
O  O28  1  0.26830000  0.23974000  0.27900000  1.0 -0.5956838599
O  O29  1  0.94130000  0.27375000  0.44080000  1.0 -0.822597476
O  O30  1  0.56020000  0.27811000  0.36540000  1.0 -0.843758153
O  O31  1  0.75330000  0.83734000  0.54980000  1.0 -0.547978299
O  O32  1  0.93460000  0.83716000  0.49480000  1.0 -0.5166740439
O  O33  1  0.52220000  0.16167000  0.34040000  1.0 -0.5434379002
O  O34  1  0.73760000  0.17728000  0.39670000  1.0 -0.580272021
O  O35  1  0.08120000  0.78484000  0.42500000  1.0 -0.5166740439
O  O36  1  0.26690000  0.74735000  0.47150000  1.0 -0.6119878015
O  O37  1  0.41370000  0.77875000  0.76840000  1.0 -0.5070354959
O  O38  1  0.23170000  0.73974000  0.72100000  1.0 -0.5956838599
O  O39  1  0.55870000  0.77375000  0.55920000  1.0 -0.822597476
O  O40  1  0.93980000  0.77811000  0.63460000  1.0 -0.843758153
F  F1  1  0.28320000  0.51091000  0.24320000  1.0 0.0014194583
F  F2  1  0.48010000  0.50720000  0.32910000  1.0 -0.0089323186
F  F3  1  0.40970000  0.56270000  0.25560000  1.0 -0.0089323186
F  F4  1  0.97110000  0.51625000  0.39380000  1.0 -0.030590548
F  F5  1  0.02820000  0.52000000  0.26960000  1.0 -0.0089323186
F  F6  1  0.88490000  0.47527000  0.28730000  1.0 0.0420374952
F  F7  1  0.45260000  0.69395000  0.04080000  1.0 -0.0089323186
F  F8  1  0.47100000  0.64687000  0.14240000  1.0 -0.0089323186
F  F9  1  0.59780000  0.64686000  0.05410000  1.0 -0.0012344571
F  F10  1  0.02610000  0.65020000  0.04200000  1.0 0.0014194583
F  F11  1  0.03040000  0.69172000  0.15150000  1.0 -0.0089323186
F  F12  1  0.88860000  0.64363000  0.12330000  1.0 -0.0216083524
F  F13  1  0.41660000  0.67550000  0.11300000  1.0 -0.039937394
F  F14  1  0.53100000  0.68130000  0.01590000  1.0 0.0189569702
F  F15  1  0.56800000  0.63190000  0.11200000  1.0 0.0189569702
F  F16  1  0.93900000  0.63240000  0.05300000  1.0 0.0120595206
F  F17  1  0.07440000  0.68280000  0.09100000  1.0 -0.039937394
F  F18  1  0.93000000  0.67050000  0.16690000  1.0 0.0120595206
F  F19  1  0.50560000  0.53500000  0.31700000  1.0 -0.0089323186
F  F20  1  0.32200000  0.55470000  0.22780000  1.0 -0.0089323186
F  F21  1  0.34100000  0.49370000  0.28100000  1.0 0.0189569702
F  F22  1  0.03600000  0.53170000  0.34700000  1.0 0.0120595206
F  F23  1  0.95600000  0.49160000  0.23660000  1.0 -0.0089323186
F  F24  1  0.89300000  0.48720000  0.35900000  1.0 -0.0012344571
F  F25  1  0.21680000  0.01091000  0.75680000  1.0 0.0014194583
F  F26  1  0.01990000  0.00720000  0.67090000  1.0 -0.0089323186
F  F27  1  0.09030000  0.06270000  0.74440000  1.0 -0.0089323186
F  F28  1  0.52890000  0.01625000  0.60620000  1.0 -0.030590548
F  F29  1  0.47180000  0.02000000  0.73040000  1.0 -0.0089323186
F  F30  1  0.61510000  0.97527000  0.71270000  1.0 0.0420374952
F  F31  1  0.04740000  0.19395000  0.95920000  1.0 -0.0012344571
F  F32  1  0.02900000  0.14687000  0.85760000  1.0 -0.0089323186
F  F33  1  0.90220000  0.14686000  0.94590000  1.0 0.0014194583
F  F34  1  0.47390000  0.15020000  0.95800000  1.0 0.0014194583
F  F35  1  0.46960000  0.19172000  0.84850000  1.0 -0.0089323186
F  F36  1  0.61140000  0.14363000  0.87670000  1.0 -0.0216083524
F  F37  1  0.08340000  0.17550000  0.88700000  1.0 -0.030590548
F  F38  1  0.96900000  0.18130000  0.98410000  1.0 0.0189569702
F  F39  1  0.93200000  0.13190000  0.88800000  1.0 0.0189569702
F  F40  1  0.56100000  0.13240000  0.94700000  1.0 0.0120595206
F  F41  1  0.42560000  0.18280000  0.90900000  1.0 -0.039937394
F  F42  1  0.57000000  0.17050000  0.83310000  1.0 0.0120595206
F  F43  1  0.99440000  0.03500000  0.68300000  1.0 -0.0089323186
F  F44  1  0.17800000  0.05470000  0.77220000  1.0 -0.0089323186
F  F45  1  0.15900000  0.99370000  0.71900000  1.0 0.0189569702
F  F46  1  0.46400000  0.03170000  0.65300000  1.0 0.0120595206
F  F47  1  0.54400000  0.99160000  0.76340000  1.0 -0.0089323186
F  F48  1  0.60700000  0.98720000  0.64100000  1.0 -0.0012344571
F  F49  1  0.71680000  0.48909000  0.75680000  1.0 -0.0012344571
F  F50  1  0.51990000  0.49280000  0.67090000  1.0 -0.0089323186
F  F51  1  0.59030000  0.43730000  0.74440000  1.0 -0.0089323186
F  F52  1  0.02890000  0.48375000  0.60620000  1.0 -0.030590548
F  F53  1  0.97180000  0.48000000  0.73040000  1.0 -0.0216083524
F  F54  1  0.11510000  0.52473000  0.71270000  1.0 0.0420374952
F  F55  1  0.54740000  0.30605000  0.95920000  1.0 -0.0012344571
F  F56  1  0.52900000  0.35313000  0.85760000  1.0 -0.0089323186
F  F57  1  0.40220000  0.35314000  0.94590000  1.0 -0.0012344571
F  F58  1  0.97390000  0.34980000  0.95800000  1.0 0.0014194583
F  F59  1  0.96960000  0.30828000  0.84850000  1.0 -0.0089323186
F  F60  1  0.11140000  0.35637000  0.87670000  1.0 -0.0216083524
F  F61  1  0.58340000  0.32450000  0.88700000  1.0 -0.030590548
F  F62  1  0.46900000  0.31870000  0.98410000  1.0 0.0189569702
F  F63  1  0.43200000  0.36810000  0.88800000  1.0 0.0189569702
F  F64  1  0.06100000  0.36760000  0.94700000  1.0 0.0120595206
F  F65  1  0.92560000  0.31720000  0.90900000  1.0 -0.039937394
F  F66  1  0.07000000  0.32950000  0.83310000  1.0 0.0189569702
F  F67  1  0.49440000  0.46500000  0.68300000  1.0 -0.0089323186
F  F68  1  0.67800000  0.44530000  0.77220000  1.0 -0.0089323186
F  F69  1  0.65900000  0.50630000  0.71900000  1.0 0.0189569702
F  F70  1  0.96400000  0.46830000  0.65300000  1.0 0.0120595206
F  F71  1  0.04400000  0.50840000  0.76340000  1.0 -0.0012344571
F  F72  1  0.10700000  0.51280000  0.64100000  1.0 0.0014194583
F  F73  1  0.78320000  0.98909000  0.24320000  1.0 0.0014194583
F  F74  1  0.98010000  0.99280000  0.32910000  1.0 -0.0089323186
F  F75  1  0.90970000  0.93730000  0.25560000  1.0 -0.0089323186
F  F76  1  0.47110000  0.98375000  0.39380000  1.0 -0.030590548
F  F77  1  0.52820000  0.98000000  0.26960000  1.0 -0.0089323186
F  F78  1  0.38490000  0.02473000  0.28730000  1.0 0.0420374952
F  F79  1  0.95260000  0.80605000  0.04080000  1.0 -0.0089323186
F  F80  1  0.97100000  0.85313000  0.14240000  1.0 -0.0089323186
F  F81  1  0.09780000  0.85314000  0.05410000  1.0 0.0014194583
F  F82  1  0.52610000  0.84980000  0.04200000  1.0 0.0014194583
F  F83  1  0.53040000  0.80828000  0.15150000  1.0 -0.0089323186
F  F84  1  0.38860000  0.85637000  0.12330000  1.0 -0.0216083524
F  F85  1  0.91660000  0.82450000  0.11300000  1.0 -0.030590548
F  F86  1  0.03100000  0.81870000  0.01590000  1.0 0.0189569702
F  F87  1  0.06800000  0.86810000  0.11200000  1.0 0.0189569702
F  F88  1  0.43900000  0.86760000  0.05300000  1.0 0.0120595206
F  F89  1  0.57440000  0.81720000  0.09100000  1.0 -0.039937394
F  F90  1  0.43000000  0.82950000  0.16690000  1.0 0.0120595206
F  F91  1  0.00560000  0.96500000  0.31700000  1.0 -0.0089323186
F  F92  1  0.82200000  0.94530000  0.22780000  1.0 -0.0089323186
F  F93  1  0.84100000  0.00630000  0.28100000  1.0 0.0189569702
F  F94  1  0.53600000  0.96830000  0.34700000  1.0 0.0120595206
F  F95  1  0.45600000  0.00840000  0.23660000  1.0 -0.0089323186
F  F96  1  0.39300000  0.01280000  0.35900000  1.0 -0.0012344571
