# DDEC6 charges by PACMAN v1.1 (https://github.com/mtap-research/PACMAN-charge/)
data_ZIWKIC_ASR_pacman
_symmetry_space_group_name_H-M   'P 1'
_cell_length_a   10.43080000
_cell_length_b   34.07060000
_cell_length_c   15.32040000
_cell_angle_alpha   90.00000000
_cell_angle_beta   104.13400000
_cell_angle_gamma   90.00000000
_symmetry_Int_Tables_number   1
_chemical_formula_structural   Cu3H14C32(O5F12)2
_chemical_formula_sum   'Cu12 H56 C128 O40 F96'
_cell_volume   5279.79569950
_cell_formula_units_Z   4
loop_
 _symmetry_equiv_pos_site_id
 _symmetry_equiv_pos_as_xyz
  1  'x, y, z'
loop_
 _atom_site_type_symbol
 _atom_site_label
 _atom_site_symmetry_multiplicity
 _atom_site_fract_x
 _atom_site_fract_y
 _atom_site_fract_z
 _atom_site_occupancy
 _atom_site_charge
Cu  Cu1  1  0.32020000  0.27704000  0.87047000  1.0 0.9300419183
Cu  Cu2  1  0.79469000  0.28449000  0.00723000  1.0 0.9218470992
Cu  Cu3  1  0.56426000  0.22419000  0.94346000  1.0 0.9484611989
Cu  Cu4  1  0.17980000  0.77704000  0.12953000  1.0 0.9300419183
Cu  Cu5  1  0.70531000  0.78449000  0.99277000  1.0 0.9218470992
Cu  Cu6  1  0.93574000  0.72419000  0.05654000  1.0 0.9484611989
Cu  Cu7  1  0.67980000  0.72296000  0.12953000  1.0 0.9300419183
Cu  Cu8  1  0.20531000  0.71551000  0.99277000  1.0 0.9218470992
Cu  Cu9  1  0.43574000  0.77581000  0.05654000  1.0 0.9484611989
Cu  Cu10  1  0.82020000  0.22296000  0.87047000  1.0 0.9300419183
Cu  Cu11  1  0.29469000  0.21551000  0.00723000  1.0 0.9218470992
Cu  Cu12  1  0.06426000  0.27581000  0.94346000  1.0 0.9484611989
H  H1  1  0.79590000  0.21120000  0.02700000  1.0 0.4016926081
H  H2  1  0.34130000  0.20260000  0.85470000  1.0 0.4125273616
H  H3  1  0.36800000  0.31030000  0.61700000  1.0 0.079889598
H  H4  1  0.69230000  0.23830000  0.52760000  1.0 0.079889598
H  H5  1  0.66666667  0.23200000  0.67430000  1.0 0.1084001253
H  H6  1  0.73630000  0.31010000  0.25320000  1.0 0.0894118526
H  H7  1  0.45910000  0.22500000  0.20580000  1.0 0.1084001253
H  H8  1  0.42500000  0.23520000  0.34900000  1.0 0.079889598
H  H9  1  0.95810000  0.40190000  0.22470000  1.0 0.073926294
H  H10  1  0.73210000  0.47830000  0.98300000  1.0 0.0894118526
H  H11  1  0.75180000  0.40850000  0.96810000  1.0 0.1013026254
H  H12  1  0.65280000  0.60020000  0.15390000  1.0 0.079889598
H  H13  1  0.99910000  0.60060000  0.08190000  1.0 0.1084001253
H  H14  1  0.00200000  0.53250000  0.08600000  1.0 0.1084001253
H  H15  1  0.70410000  0.71120000  0.97300000  1.0 0.4016926081
H  H16  1  0.15870000  0.70260000  0.14530000  1.0 0.4125273616
H  H17  1  0.13200000  0.81030000  0.38300000  1.0 0.079889598
H  H18  1  0.80770000  0.73830000  0.47240000  1.0 0.079889598
H  H19  1  0.83333000  0.73200000  0.32570000  1.0 0.1084001253
H  H20  1  0.76370000  0.81010000  0.74680000  1.0 0.0894118526
H  H21  1  0.04090000  0.72500000  0.79420000  1.0 0.1084001253
H  H22  1  0.07500000  0.73520000  0.65100000  1.0 0.079889598
H  H23  1  0.54190000  0.90190000  0.77530000  1.0 0.073926294
H  H24  1  0.76790000  0.97830000  0.01700000  1.0 0.0894118526
H  H25  1  0.74820000  0.90850000  0.03190000  1.0 0.1013026254
H  H26  1  0.84720000  0.10020000  0.84610000  1.0 0.079889598
H  H27  1  0.50090000  0.10060000  0.91810000  1.0 0.1084001253
H  H28  1  0.49800000  0.03250000  0.91400000  1.0 0.1084001253
H  H29  1  0.20410000  0.78880000  0.97300000  1.0 0.4016926081
H  H30  1  0.65870000  0.79740000  0.14530000  1.0 0.4125273616
H  H31  1  0.63200000  0.68970000  0.38300000  1.0 0.079889598
H  H32  1  0.30770000  0.76170000  0.47240000  1.0 0.079889598
H  H33  1  0.33333333  0.76800000  0.32570000  1.0 0.1084001253
H  H34  1  0.26370000  0.68990000  0.74680000  1.0 0.0894118526
H  H35  1  0.54090000  0.77500000  0.79420000  1.0 0.1084001253
H  H36  1  0.57500000  0.76480000  0.65100000  1.0 0.079889598
H  H37  1  0.04190000  0.59810000  0.77530000  1.0 0.073926294
H  H38  1  0.26790000  0.52170000  0.01700000  1.0 0.0894118526
H  H39  1  0.24820000  0.59150000  0.03190000  1.0 0.1013026254
H  H40  1  0.34720000  0.39980000  0.84610000  1.0 0.079889598
H  H41  1  0.00090000  0.39940000  0.91810000  1.0 0.1084001253
H  H42  1  0.99800000  0.46750000  0.91400000  1.0 0.1084001253
H  H43  1  0.29590000  0.28880000  0.02700000  1.0 0.4016926081
H  H44  1  0.84130000  0.29740000  0.85470000  1.0 0.4125273616
H  H45  1  0.86800000  0.18970000  0.61700000  1.0 0.079889598
H  H46  1  0.19230000  0.26170000  0.52760000  1.0 0.079889598
H  H47  1  0.16667000  0.26800000  0.67430000  1.0 0.1084001253
H  H48  1  0.23630000  0.18990000  0.25320000  1.0 0.0894118526
H  H49  1  0.95910000  0.27500000  0.20580000  1.0 0.1084001253
H  H50  1  0.92500000  0.26480000  0.34900000  1.0 0.079889598
H  H51  1  0.45810000  0.09810000  0.22470000  1.0 0.073926294
H  H52  1  0.23210000  0.02170000  0.98300000  1.0 0.0894118526
H  H53  1  0.25180000  0.09150000  0.96810000  1.0 0.1013026254
H  H54  1  0.15280000  0.89980000  0.15390000  1.0 0.079889598
H  H55  1  0.49910000  0.89940000  0.08190000  1.0 0.1084001253
H  H56  1  0.50200000  0.96750000  0.08600000  1.0 0.1084001253
C  C1  1  0.49150000  0.26420000  0.75230000  1.0 0.5985075624
C  C2  1  0.51270000  0.26930000  0.65940000  1.0 -0.0022877097
C  C3  1  0.43310000  0.29520000  0.59850000  1.0 -0.1267140193
C  C4  1  0.44810000  0.29890000  0.51110000  1.0 -0.2761639465
C  C5  1  0.54520000  0.27750000  0.48110000  1.0 -0.0282558578
C  C6  1  0.62480000  0.25300000  0.54460000  1.0 -0.1923833883
C  C7  1  0.60960000  0.24890000  0.63300000  1.0 -0.1012574641
C  C8  1  0.35410000  0.32450000  0.44720000  1.0 0.3828350657
C  C9  1  0.56320000  0.27700000  0.38710000  1.0 0.0027030298
C  C10  1  0.65570000  0.29960000  0.36020000  1.0 -0.2596738732
C  C11  1  0.67190000  0.29500000  0.27260000  1.0 -0.1398364811
C  C12  1  0.59540000  0.26870000  0.21500000  1.0 0.010526752
C  C13  1  0.50690000  0.24480000  0.24400000  1.0 -0.0883682205
C  C14  1  0.48950000  0.25030000  0.32970000  1.0 -0.1759412272
C  C15  1  0.74950000  0.32660000  0.42360000  1.0 0.3828350657
C  C16  1  0.62250000  0.26290000  0.12240000  1.0 0.5985075624
C  C17  1  0.88160000  0.35660000  0.08530000  1.0 0.5645011456
C  C18  1  0.86230000  0.40030000  0.09460000  1.0 0.010526752
C  C19  1  0.91240000  0.41760000  0.17560000  1.0 -0.1398364811
C  C20  1  0.89870000  0.45750000  0.18870000  1.0 -0.2282278447
C  C21  1  0.83220000  0.48040000  0.11390000  1.0 0.010526752
C  C22  1  0.77800000  0.46300000  0.03260000  1.0 -0.1730629562
C  C23  1  0.79160000  0.42120000  0.02320000  1.0 -0.0883682205
C  C24  1  0.96020000  0.47460000  0.27810000  1.0 0.3395478071
C  C25  1  0.82540000  0.52460000  0.11710000  1.0 0.031656695
C  C26  1  0.72010000  0.54550000  0.13450000  1.0 -0.2189447591
C  C27  1  0.72300000  0.58640000  0.13800000  1.0 -0.118146986
C  C28  1  0.82520000  0.60700000  0.11910000  1.0 -0.0022877097
C  C29  1  0.92890000  0.58670000  0.09730000  1.0 -0.0777445568
C  C30  1  0.92900000  0.54610000  0.09840000  1.0 -0.1267140193
C  C31  1  0.60450000  0.52560000  0.15390000  1.0 0.3696828426
C  C32  1  0.82730000  0.65130000  0.11920000  1.0 0.5823600085
C  C33  1  0.00850000  0.76420000  0.24770000  1.0 0.5985075624
C  C34  1  0.98730000  0.76930000  0.34060000  1.0 0.0027030298
C  C35  1  0.06690000  0.79520000  0.40150000  1.0 -0.1267140193
C  C36  1  0.05190000  0.79890000  0.48890000  1.0 -0.2761639465
C  C37  1  0.95480000  0.77750000  0.51890000  1.0 -0.0282558578
C  C38  1  0.87520000  0.75300000  0.45540000  1.0 -0.1923833883
C  C39  1  0.89040000  0.74890000  0.36700000  1.0 -0.1012574641
C  C40  1  0.14590000  0.82450000  0.55280000  1.0 0.3828350657
C  C41  1  0.93680000  0.77700000  0.61290000  1.0 0.0027030298
C  C42  1  0.84430000  0.79960000  0.63980000  1.0 -0.2596738732
C  C43  1  0.82810000  0.79500000  0.72740000  1.0 -0.1398364811
C  C44  1  0.90460000  0.76870000  0.78500000  1.0 0.010526752
C  C45  1  0.99310000  0.74480000  0.75600000  1.0 -0.0883682205
C  C46  1  0.01050000  0.75030000  0.67030000  1.0 -0.1759412272
C  C47  1  0.75050000  0.82660000  0.57640000  1.0 0.3828350657
C  C48  1  0.87750000  0.76290000  0.87760000  1.0 0.5985075624
C  C49  1  0.61840000  0.85660000  0.91470000  1.0 0.5645011456
C  C50  1  0.63770000  0.90030000  0.90540000  1.0 0.010526752
C  C51  1  0.58760000  0.91760000  0.82440000  1.0 -0.1398364811
C  C52  1  0.60130000  0.95750000  0.81130000  1.0 -0.2282278447
C  C53  1  0.66780000  0.98040000  0.88610000  1.0 0.010526752
C  C54  1  0.72200000  0.96300000  0.96740000  1.0 -0.1730629562
C  C55  1  0.70840000  0.92120000  0.97680000  1.0 -0.0883682205
C  C56  1  0.53980000  0.97460000  0.72190000  1.0 0.3395478071
C  C57  1  0.67460000  0.02460000  0.88290000  1.0 0.031656695
C  C58  1  0.77990000  0.04550000  0.86550000  1.0 -0.2115762143
C  C59  1  0.77700000  0.08640000  0.86200000  1.0 -0.118146986
C  C60  1  0.67480000  0.10700000  0.88090000  1.0 -0.0022877097
C  C61  1  0.57110000  0.08670000  0.90270000  1.0 -0.0777445568
C  C62  1  0.57100000  0.04610000  0.90160000  1.0 -0.1267140193
C  C63  1  0.89550000  0.02560000  0.84610000  1.0 0.3696828426
C  C64  1  0.67270000  0.15130000  0.88080000  1.0 0.5823600085
C  C65  1  0.50850000  0.73580000  0.24770000  1.0 0.5985075624
C  C66  1  0.48730000  0.73070000  0.34060000  1.0 0.0027030298
C  C67  1  0.56690000  0.70480000  0.40150000  1.0 -0.1267140193
C  C68  1  0.55190000  0.70110000  0.48890000  1.0 -0.2761639465
C  C69  1  0.45480000  0.72250000  0.51890000  1.0 -0.0282558578
C  C70  1  0.37520000  0.74700000  0.45540000  1.0 -0.1923833883
C  C71  1  0.39040000  0.75110000  0.36700000  1.0 -0.1012574641
C  C72  1  0.64590000  0.67550000  0.55280000  1.0 0.3828350657
C  C73  1  0.43680000  0.72300000  0.61290000  1.0 0.0027030298
C  C74  1  0.34430000  0.70040000  0.63980000  1.0 -0.2596738732
C  C75  1  0.32810000  0.70500000  0.72740000  1.0 -0.1398364811
C  C76  1  0.40460000  0.73130000  0.78500000  1.0 0.010526752
C  C77  1  0.49310000  0.75520000  0.75600000  1.0 -0.0883682205
C  C78  1  0.51050000  0.74970000  0.67030000  1.0 -0.1759412272
C  C79  1  0.25050000  0.67340000  0.57640000  1.0 0.3828350657
C  C80  1  0.37750000  0.73710000  0.87760000  1.0 0.5985075624
C  C81  1  0.11840000  0.64340000  0.91470000  1.0 0.5645011456
C  C82  1  0.13770000  0.59970000  0.90540000  1.0 0.010526752
C  C83  1  0.08760000  0.58240000  0.82440000  1.0 -0.1398364811
C  C84  1  0.10130000  0.54250000  0.81130000  1.0 -0.2282278447
C  C85  1  0.16780000  0.51960000  0.88610000  1.0 0.010526752
C  C86  1  0.22200000  0.53700000  0.96740000  1.0 -0.1730629562
C  C87  1  0.20840000  0.57880000  0.97680000  1.0 -0.0883682205
C  C88  1  0.03980000  0.52540000  0.72190000  1.0 0.3395478071
C  C89  1  0.17460000  0.47540000  0.88290000  1.0 0.031656695
C  C90  1  0.27990000  0.45450000  0.86550000  1.0 -0.2189447591
C  C91  1  0.27700000  0.41360000  0.86200000  1.0 -0.118146986
C  C92  1  0.17480000  0.39300000  0.88090000  1.0 -0.0022877097
C  C93  1  0.07110000  0.41330000  0.90270000  1.0 -0.0777445568
C  C94  1  0.07100000  0.45390000  0.90160000  1.0 -0.1267140193
C  C95  1  0.39550000  0.47440000  0.84610000  1.0 0.3696828426
C  C96  1  0.17270000  0.34870000  0.88080000  1.0 0.5823600085
C  C97  1  0.99150000  0.23580000  0.75230000  1.0 0.5985075624
C  C98  1  0.01270000  0.23070000  0.65940000  1.0 -0.0022877097
C  C99  1  0.93310000  0.20480000  0.59850000  1.0 -0.1267140193
C  C100  1  0.94810000  0.20110000  0.51110000  1.0 -0.2722642629
C  C101  1  0.04520000  0.22250000  0.48110000  1.0 -0.0282558578
C  C102  1  0.12480000  0.24700000  0.54460000  1.0 -0.1923833883
C  C103  1  0.10960000  0.25110000  0.63300000  1.0 -0.1012574641
C  C104  1  0.85410000  0.17550000  0.44720000  1.0 0.3828350657
C  C105  1  0.06320000  0.22300000  0.38710000  1.0 0.0027030298
C  C106  1  0.15570000  0.20040000  0.36020000  1.0 -0.2596738732
C  C107  1  0.17190000  0.20500000  0.27260000  1.0 -0.1398364811
C  C108  1  0.09540000  0.23130000  0.21500000  1.0 0.010526752
C  C109  1  0.00690000  0.25520000  0.24400000  1.0 -0.0883682205
C  C110  1  0.98950000  0.24970000  0.32970000  1.0 -0.1759412272
C  C111  1  0.24950000  0.17340000  0.42360000  1.0 0.3828350657
C  C112  1  0.12250000  0.23710000  0.12240000  1.0 0.5985075624
C  C113  1  0.38160000  0.14340000  0.08530000  1.0 0.5645011456
C  C114  1  0.36230000  0.09970000  0.09460000  1.0 0.010526752
C  C115  1  0.41240000  0.08240000  0.17560000  1.0 -0.1398364811
C  C116  1  0.39870000  0.04250000  0.18870000  1.0 -0.2189447591
C  C117  1  0.33220000  0.01960000  0.11390000  1.0 0.010526752
C  C118  1  0.27800000  0.03700000  0.03260000  1.0 -0.1730629562
C  C119  1  0.29160000  0.07880000  0.02320000  1.0 -0.0883682205
C  C120  1  0.46020000  0.02540000  0.27810000  1.0 0.3395478071
C  C121  1  0.32540000  0.97540000  0.11710000  1.0 0.031656695
C  C122  1  0.22010000  0.95450000  0.13450000  1.0 -0.2115762143
C  C123  1  0.22300000  0.91360000  0.13800000  1.0 -0.118146986
C  C124  1  0.32520000  0.89300000  0.11910000  1.0 -0.0022877097
C  C125  1  0.42890000  0.91330000  0.09730000  1.0 -0.0777445568
C  C126  1  0.42900000  0.95390000  0.09840000  1.0 -0.1267140193
C  C127  1  0.10450000  0.97440000  0.15390000  1.0 0.3696828426
C  C128  1  0.32730000  0.84870000  0.11920000  1.0 0.5823600085
O  O1  1  0.38490000  0.27851000  0.76400000  1.0 -0.5278629421
O  O2  1  0.57570000  0.24557000  0.81030000  1.0 -0.6478662102
O  O3  1  0.72040000  0.28153000  0.11070000  1.0 -0.5183913021
O  O4  1  0.54680000  0.24055000  0.06720000  1.0 -0.5976319223
O  O5  1  0.96320000  0.33970000  0.14390000  1.0 -0.5142449348
O  O6  1  0.81380000  0.34051000  0.01690000  1.0 -0.5278629421
O  O7  1  0.74010000  0.66808000  0.15000000  1.0 -0.5278629421
O  O8  1  0.91490000  0.66688000  0.08890000  1.0 -0.5278629421
O  O9  1  0.75310000  0.22944000  0.97730000  1.0 -0.850527501
O  O10  1  0.37430000  0.22193000  0.90420000  1.0 -0.8406290321
O  O11  1  0.11510000  0.77851000  0.23600000  1.0 -0.5278629421
O  O12  1  0.92430000  0.74557000  0.18970000  1.0 -0.6478662102
O  O13  1  0.77960000  0.78153000  0.88930000  1.0 -0.5183913021
O  O14  1  0.95320000  0.74055000  0.93280000  1.0 -0.5976319223
O  O15  1  0.53680000  0.83970000  0.85610000  1.0 -0.5142449348
O  O16  1  0.68620000  0.84051000  0.98310000  1.0 -0.5278629421
O  O17  1  0.75990000  0.16808000  0.85000000  1.0 -0.5278629421
O  O18  1  0.58510000  0.16688000  0.91110000  1.0 -0.5278629421
O  O19  1  0.74690000  0.72944000  0.02270000  1.0 -0.850527501
O  O20  1  0.12570000  0.72193000  0.09580000  1.0 -0.8406290321
O  O21  1  0.61510000  0.72149000  0.23600000  1.0 -0.5278629421
O  O22  1  0.42430000  0.75443000  0.18970000  1.0 -0.6478662102
O  O23  1  0.27960000  0.71847000  0.88930000  1.0 -0.5183913021
O  O24  1  0.45320000  0.75945000  0.93280000  1.0 -0.5976319223
O  O25  1  0.03680000  0.66030000  0.85610000  1.0 -0.5142449348
O  O26  1  0.18620000  0.65949000  0.98310000  1.0 -0.5278629421
O  O27  1  0.25990000  0.33192000  0.85000000  1.0 -0.5278629421
O  O28  1  0.08510000  0.33312000  0.91110000  1.0 -0.5278629421
O  O29  1  0.24690000  0.77056000  0.02270000  1.0 -0.850527501
O  O30  1  0.62570000  0.77807000  0.09580000  1.0 -0.8406290321
O  O31  1  0.88490000  0.22149000  0.76400000  1.0 -0.5278629421
O  O32  1  0.07570000  0.25443000  0.81030000  1.0 -0.6478662102
O  O33  1  0.22040000  0.21847000  0.11070000  1.0 -0.5183913021
O  O34  1  0.04680000  0.25945000  0.06720000  1.0 -0.5976319223
O  O35  1  0.46320000  0.16030000  0.14390000  1.0 -0.5142449348
O  O36  1  0.31380000  0.15949000  0.01690000  1.0 -0.5278629421
O  O37  1  0.24010000  0.83192000  0.15000000  1.0 -0.5278629421
O  O38  1  0.41490000  0.83312000  0.08890000  1.0 -0.5278629421
O  O39  1  0.25310000  0.27056000  0.97730000  1.0 -0.850527501
O  O40  1  0.87430000  0.27807000  0.90420000  1.0 -0.8406290321
F  F1  1  0.27310000  0.34430000  0.48460000  1.0 0.0370080307
F  F2  1  0.41300000  0.35000000  0.40450000  1.0 -0.0196487007
F  F3  1  0.27560000  0.30360000  0.38060000  1.0 -0.0095418605
F  F4  1  0.83610000  0.30580000  0.48690000  1.0 -0.0095418605
F  F5  1  0.68650000  0.34990000  0.46900000  1.0 0.0027030298
F  F6  1  0.82240000  0.34800000  0.38320000  1.0 -0.0095418605
F  F7  1  0.99820000  0.44770000  0.34240000  1.0 0.0027030298
F  F8  1  0.88140000  0.49950000  0.30760000  1.0 -0.0095418605
F  F9  1  0.06800000  0.49580000  0.27600000  1.0 0.0027030298
F  F10  1  0.63340000  0.49770000  0.21510000  1.0 -0.0095418605
F  F11  1  0.51010000  0.54810000  0.16740000  1.0 0.073926294
F  F12  1  0.54050000  0.50450000  0.07880000  1.0 -0.072738847
F  F13  1  0.37400000  0.36260000  0.46800000  1.0 -0.0022877097
F  F14  1  0.22870000  0.31810000  0.44900000  1.0 -0.0196487007
F  F15  1  0.35900000  0.32090000  0.36260000  1.0 0.031656695
F  F16  1  0.73100000  0.32570000  0.50600000  1.0 0.010526752
F  F17  1  0.87490000  0.31750000  0.42700000  1.0 -0.0196487007
F  F18  1  0.73100000  0.36380000  0.39400000  1.0 -0.0095418605
F  F19  1  0.08300000  0.46150000  0.31200000  1.0 0.010526752
F  F20  1  0.89400000  0.46450000  0.33980000  1.0 -0.0196487007
F  F21  1  0.96700000  0.51330000  0.27930000  1.0 0.031656695
F  F22  1  0.60200000  0.48800000  0.15300000  1.0 0.0483812613
F  F23  1  0.60000000  0.53450000  0.24110000  1.0 -0.0562398222
F  F24  1  0.48890000  0.53980000  0.11000000  1.0 0.0370080307
F  F25  1  0.22690000  0.84430000  0.51540000  1.0 0.0370080307
F  F26  1  0.08700000  0.85000000  0.59550000  1.0 -0.0196487007
F  F27  1  0.22440000  0.80360000  0.61940000  1.0 -0.0095418605
F  F28  1  0.66390000  0.80580000  0.51310000  1.0 -0.0196487007
F  F29  1  0.81350000  0.84990000  0.53100000  1.0 0.0027030298
F  F30  1  0.67760000  0.84800000  0.61680000  1.0 -0.0095418605
F  F31  1  0.50180000  0.94770000  0.65760000  1.0 0.010526752
F  F32  1  0.61860000  0.99950000  0.69240000  1.0 -0.0095418605
F  F33  1  0.43200000  0.99580000  0.72400000  1.0 0.0027030298
F  F34  1  0.86660000  0.99770000  0.78490000  1.0 -0.0095418605
F  F35  1  0.98990000  0.04810000  0.83260000  1.0 0.073926294
F  F36  1  0.95950000  0.00450000  0.92120000  1.0 -0.072738847
F  F37  1  0.12600000  0.86260000  0.53200000  1.0 -0.0022877097
F  F38  1  0.27130000  0.81810000  0.55100000  1.0 -0.0196487007
F  F39  1  0.14100000  0.82090000  0.63740000  1.0 0.031656695
F  F40  1  0.76900000  0.82570000  0.49400000  1.0 0.010526752
F  F41  1  0.62510000  0.81750000  0.57300000  1.0 -0.0196487007
F  F42  1  0.76900000  0.86380000  0.60600000  1.0 -0.0095418605
F  F43  1  0.41700000  0.96150000  0.68800000  1.0 0.010526752
F  F44  1  0.60600000  0.96450000  0.66020000  1.0 -0.0196487007
F  F45  1  0.53300000  0.01330000  0.72070000  1.0 0.031656695
F  F46  1  0.89800000  0.98800000  0.84700000  1.0 0.0483812613
F  F47  1  0.90000000  0.03450000  0.75890000  1.0 -0.0562398222
F  F48  1  0.01110000  0.03980000  0.89000000  1.0 0.0370080307
F  F49  1  0.72690000  0.65570000  0.51540000  1.0 0.031656695
F  F50  1  0.58700000  0.65000000  0.59550000  1.0 -0.0196487007
F  F51  1  0.72440000  0.69640000  0.61940000  1.0 -0.0095418605
F  F52  1  0.16390000  0.69420000  0.51310000  1.0 -0.0095418605
F  F53  1  0.31350000  0.65010000  0.53100000  1.0 0.0027030298
F  F54  1  0.17760000  0.65200000  0.61680000  1.0 -0.0022877097
F  F55  1  0.00180000  0.55230000  0.65760000  1.0 0.010526752
F  F56  1  0.11860000  0.50050000  0.69240000  1.0 -0.0095418605
F  F57  1  0.93200000  0.50420000  0.72400000  1.0 -0.0022877097
F  F58  1  0.36660000  0.50230000  0.78490000  1.0 -0.0095418605
F  F59  1  0.48990000  0.45190000  0.83260000  1.0 0.073926294
F  F60  1  0.45950000  0.49550000  0.92120000  1.0 -0.072738847
F  F61  1  0.62600000  0.63740000  0.53200000  1.0 -0.0022877097
F  F62  1  0.77130000  0.68190000  0.55100000  1.0 -0.0196487007
F  F63  1  0.64100000  0.67910000  0.63740000  1.0 0.031656695
F  F64  1  0.26900000  0.67430000  0.49400000  1.0 0.0158693062
F  F65  1  0.12510000  0.68250000  0.57300000  1.0 -0.0196487007
F  F66  1  0.26900000  0.63620000  0.60600000  1.0 -0.0095418605
F  F67  1  0.91700000  0.53850000  0.68800000  1.0 0.010526752
F  F68  1  0.10600000  0.53550000  0.66020000  1.0 -0.0196487007
F  F69  1  0.03300000  0.48670000  0.72070000  1.0 0.031656695
F  F70  1  0.39800000  0.51200000  0.84700000  1.0 0.0483812613
F  F71  1  0.40000000  0.46550000  0.75890000  1.0 -0.0562398222
F  F72  1  0.51110000  0.46020000  0.89000000  1.0 0.0370080307
F  F73  1  0.77310000  0.15570000  0.48460000  1.0 0.0370080307
F  F74  1  0.91300000  0.15000000  0.40450000  1.0 -0.0196487007
F  F75  1  0.77560000  0.19640000  0.38060000  1.0 -0.0095418605
F  F76  1  0.33610000  0.19420000  0.48690000  1.0 -0.0095418605
F  F77  1  0.18650000  0.15010000  0.46900000  1.0 0.0027030298
F  F78  1  0.32240000  0.15200000  0.38320000  1.0 -0.0022877097
F  F79  1  0.49820000  0.05230000  0.34240000  1.0 0.010526752
F  F80  1  0.38140000  0.00050000  0.30760000  1.0 -0.0095418605
F  F81  1  0.56800000  0.00420000  0.27600000  1.0 -0.0022877097
F  F82  1  0.13340000  0.00230000  0.21510000  1.0 -0.0095418605
F  F83  1  0.01010000  0.95190000  0.16740000  1.0 0.079889598
F  F84  1  0.04050000  0.99550000  0.07880000  1.0 -0.072738847
F  F85  1  0.87400000  0.13740000  0.46800000  1.0 -0.0022877097
F  F86  1  0.72870000  0.18190000  0.44900000  1.0 -0.0196487007
F  F87  1  0.85900000  0.17910000  0.36260000  1.0 0.031656695
F  F88  1  0.23100000  0.17430000  0.50600000  1.0 0.0158693062
F  F89  1  0.37490000  0.18250000  0.42700000  1.0 -0.0196487007
F  F90  1  0.23100000  0.13620000  0.39400000  1.0 -0.0095418605
F  F91  1  0.58300000  0.03850000  0.31200000  1.0 0.010526752
F  F92  1  0.39400000  0.03550000  0.33980000  1.0 -0.0196487007
F  F93  1  0.46700000  0.98670000  0.27930000  1.0 0.031656695
F  F94  1  0.10200000  0.01200000  0.15300000  1.0 0.0483812613
F  F95  1  0.10000000  0.96550000  0.24110000  1.0 -0.0562398222
F  F96  1  0.98890000  0.96020000  0.11000000  1.0 0.0370080307
