# DDEC6 charges by PACMAN v1.1 (https://github.com/mtap-research/PACMAN-charge/)
data_ZIWKOI_FSR_pacman
_symmetry_space_group_name_H-M   'P 1'
_cell_length_a   10.31370000
_cell_length_b   31.61360000
_cell_length_c   15.17790000
_cell_angle_alpha   90.00000000
_cell_angle_beta   106.52700000
_cell_angle_gamma   90.00000000
_symmetry_Int_Tables_number   1
_chemical_formula_structural   Cu3H14C32(O5F12)2
_chemical_formula_sum   'Cu12 H56 C128 O40 F96'
_cell_volume   4744.34678115
_cell_formula_units_Z   4
loop_
 _symmetry_equiv_pos_site_id
 _symmetry_equiv_pos_as_xyz
  1  'x, y, z'
loop_
 _atom_site_type_symbol
 _atom_site_label
 _atom_site_symmetry_multiplicity
 _atom_site_fract_x
 _atom_site_fract_y
 _atom_site_fract_z
 _atom_site_occupancy
 _atom_site_charge
Cu  Cu1  1  0.96739000  0.28591000  0.91369000  1.0 0.966619055
Cu  Cu2  1  0.22672000  0.28038000  0.84486000  1.0 0.966619055
Cu  Cu3  1  0.50656000  0.72262000  0.22483000  1.0 0.9204584539
Cu  Cu4  1  0.53261000  0.78591000  0.08631000  1.0 0.966619055
Cu  Cu5  1  0.27328000  0.78038000  0.15514000  1.0 0.966619055
Cu  Cu6  1  0.99344000  0.22262000  0.77517000  1.0 0.9204584539
Cu  Cu7  1  0.03261000  0.71409000  0.08631000  1.0 0.966619055
Cu  Cu8  1  0.77328000  0.71962000  0.15514000  1.0 0.966619055
Cu  Cu9  1  0.49344000  0.27738000  0.77517000  1.0 0.9204584539
Cu  Cu10  1  0.46739000  0.21409000  0.91369000  1.0 0.966619055
Cu  Cu11  1  0.72672000  0.21962000  0.84486000  1.0 0.966619055
Cu  Cu12  1  0.00656000  0.77738000  0.22483000  1.0 0.9204584539
H  H1  1  0.99050000  0.30290000  0.75510000  1.0 0.4120764559
H  H2  1  0.46610000  0.29350000  0.93120000  1.0 0.4120764559
H  H3  1  0.08220000  0.39190000  0.08040000  1.0 0.0972374032
H  H4  1  0.35820000  0.48540000  0.98060000  1.0 0.091198696
H  H5  1  0.30310000  0.42060000  0.90800000  1.0 0.1110037111
H  H6  1  0.52310000  0.58320000  0.23860000  1.0 0.091198696
H  H7  1  0.15370000  0.61660000  0.07890000  1.0 0.1180701584
H  H8  1  0.10720000  0.54570000  0.03980000  1.0 0.0972374032
H  H9  1  0.44020000  0.68620000  0.46970000  1.0 0.091198696
H  H10  1  0.15390000  0.77490000  0.57000000  1.0 0.091198696
H  H11  1  0.18360000  0.78510000  0.42470000  1.0 0.1110037111
H  H12  1  0.08690000  0.68270000  0.83250000  1.0 0.0972374032
H  H13  1  0.36260000  0.77670000  0.89160000  1.0 0.1180701584
H  H14  1  0.39080000  0.77060000  0.74720000  1.0 0.0972374032
H  H15  1  0.50950000  0.80290000  0.24490000  1.0 0.4120764559
H  H16  1  0.03390000  0.79350000  0.06880000  1.0 0.4120764559
H  H17  1  0.41780000  0.89190000  0.91960000  1.0 0.0972374032
H  H18  1  0.14180000  0.98540000  0.01940000  1.0 0.091198696
H  H19  1  0.19690000  0.92060000  0.09200000  1.0 0.1110037111
H  H20  1  0.97690000  0.08320000  0.76140000  1.0 0.091198696
H  H21  1  0.34630000  0.11660000  0.92110000  1.0 0.1180701584
H  H22  1  0.39280000  0.04570000  0.96020000  1.0 0.0972374032
H  H23  1  0.05980000  0.18620000  0.53030000  1.0 0.091198696
H  H24  1  0.34610000  0.27490000  0.43000000  1.0 0.091198696
H  H25  1  0.31640000  0.28510000  0.57530000  1.0 0.1110037111
H  H26  1  0.41310000  0.18270000  0.16750000  1.0 0.0972374032
H  H27  1  0.13740000  0.27670000  0.10840000  1.0 0.1180701584
H  H28  1  0.10920000  0.27060000  0.25280000  1.0 0.0972374032
H  H29  1  0.00950000  0.69710000  0.24490000  1.0 0.4120764559
H  H30  1  0.53390000  0.70650000  0.06880000  1.0 0.4120764559
H  H31  1  0.91780000  0.60810000  0.91960000  1.0 0.0972374032
H  H32  1  0.64180000  0.51460000  0.01940000  1.0 0.091198696
H  H33  1  0.69690000  0.57940000  0.09200000  1.0 0.1110037111
H  H34  1  0.47690000  0.41680000  0.76140000  1.0 0.091198696
H  H35  1  0.84630000  0.38340000  0.92110000  1.0 0.1180701584
H  H36  1  0.89280000  0.45430000  0.96020000  1.0 0.0972374032
H  H37  1  0.55980000  0.31380000  0.53030000  1.0 0.091198696
H  H38  1  0.84610000  0.22510000  0.43000000  1.0 0.091198696
H  H39  1  0.81640000  0.21490000  0.57530000  1.0 0.1110037111
H  H40  1  0.91310000  0.31730000  0.16750000  1.0 0.0972374032
H  H41  1  0.63740000  0.22330000  0.10840000  1.0 0.1180701584
H  H42  1  0.60920000  0.22940000  0.25280000  1.0 0.0972374032
H  H43  1  0.49050000  0.19710000  0.75510000  1.0 0.4156801283
H  H44  1  0.96610000  0.20650000  0.93120000  1.0 0.4120764559
H  H45  1  0.58220000  0.10810000  0.08040000  1.0 0.0972374032
H  H46  1  0.85820000  0.01460000  0.98060000  1.0 0.091198696
H  H47  1  0.80310000  0.07940000  0.90800000  1.0 0.1110037111
H  H48  1  0.02310000  0.91680000  0.23860000  1.0 0.091198696
H  H49  1  0.65370000  0.88340000  0.07890000  1.0 0.1180701584
H  H50  1  0.60720000  0.95430000  0.03980000  1.0 0.0972374032
H  H51  1  0.94020000  0.81380000  0.46970000  1.0 0.091198696
H  H52  1  0.65390000  0.72510000  0.57000000  1.0 0.091198696
H  H53  1  0.68360000  0.71490000  0.42470000  1.0 0.1110037111
H  H54  1  0.58690000  0.81730000  0.83250000  1.0 0.0972374032
H  H55  1  0.86260000  0.72330000  0.89160000  1.0 0.1180701584
H  H56  1  0.89080000  0.72940000  0.74720000  1.0 0.0972374032
C  C1  1  0.15310000  0.35720000  0.94240000  1.0 0.5991284281
C  C2  1  0.18880000  0.39952000  0.98790000  1.0 0.0190761273
C  C3  1  0.13920000  0.41092000  0.06020000  1.0 -0.173627627
C  C4  1  0.17170000  0.44990000  0.10350000  1.0 -0.2734722742
C  C5  1  0.25490000  0.47833000  0.07450000  1.0 0.0190761273
C  C6  1  0.30200000  0.46645000  0.00160000  1.0 -0.1764434994
C  C7  1  0.26960000  0.42773000  0.95830000  1.0 -0.121624911
C  C8  1  0.10840000  0.46060000  0.17850000  1.0 0.399171647
C  C9  1  0.28680000  0.52223000  0.11210000  1.0 0.0287477561
C  C10  1  0.40990000  0.53321000  0.17300000  1.0 -0.2183306374
C  C11  1  0.43830000  0.57570000  0.19730000  1.0 -0.121624911
C  C12  1  0.34360000  0.60657000  0.16160000  1.0 0.0190761273
C  C13  1  0.22010000  0.59550000  0.10300000  1.0 -0.0803666104
C  C14  1  0.19310000  0.55320000  0.07950000  1.0 -0.1397830318
C  C15  1  0.51860000  0.50160000  0.21430000  1.0 0.3724727213
C  C16  1  0.37530000  0.65274000  0.18330000  1.0 0.5730191052
C  C17  1  0.34010000  0.74298000  0.34110000  1.0 0.6093671202
C  C18  1  0.31340000  0.73622000  0.43260000  1.0 0.0190761273
C  C19  1  0.38110000  0.70438000  0.49000000  1.0 -0.1397830318
C  C20  1  0.36430000  0.69849000  0.57690000  1.0 -0.2734722742
C  C21  1  0.27440000  0.72435000  0.60530000  1.0 0.0190761273
C  C22  1  0.21150000  0.75630000  0.54940000  1.0 -0.1397830318
C  C23  1  0.22930000  0.76270000  0.46270000  1.0 -0.1032451809
C  C24  1  0.44980000  0.66580000  0.63800000  1.0 0.399171647
C  C25  1  0.25470000  0.72296000  0.69980000  1.0 0.0190761273
C  C26  1  0.16360000  0.69709000  0.72650000  1.0 -0.2778719008
C  C27  1  0.14890000  0.70062000  0.81470000  1.0 -0.1504266307
C  C28  1  0.22330000  0.72991000  0.87700000  1.0 0.0112232867
C  C29  1  0.31230000  0.75610000  0.85020000  1.0 -0.1032451809
C  C30  1  0.32820000  0.75260000  0.76410000  1.0 -0.1504266307
C  C31  1  0.07440000  0.66640000  0.66270000  1.0 0.4120764559
C  C32  1  0.20330000  0.73394000  0.97060000  1.0 0.6093671202
C  C33  1  0.34690000  0.85720000  0.05760000  1.0 0.5991284281
C  C34  1  0.31120000  0.89952000  0.01210000  1.0 0.0190761273
C  C35  1  0.36080000  0.91092000  0.93980000  1.0 -0.1764434994
C  C36  1  0.32830000  0.94990000  0.89650000  1.0 -0.2778719008
C  C37  1  0.24510000  0.97833000  0.92550000  1.0 0.0190761273
C  C38  1  0.19800000  0.96645000  0.99840000  1.0 -0.1764434994
C  C39  1  0.23040000  0.92773000  0.04170000  1.0 -0.121624911
C  C40  1  0.39160000  0.96060000  0.82150000  1.0 0.399171647
C  C41  1  0.21320000  0.02223000  0.88790000  1.0 0.0287477561
C  C42  1  0.09010000  0.03321000  0.82700000  1.0 -0.2183306374
C  C43  1  0.06170000  0.07570000  0.80270000  1.0 -0.121624911
C  C44  1  0.15640000  0.10657000  0.83840000  1.0 0.0190761273
C  C45  1  0.27990000  0.09550000  0.89700000  1.0 -0.0803666104
C  C46  1  0.30690000  0.05320000  0.92050000  1.0 -0.1397830318
C  C47  1  0.98140000  0.00160000  0.78570000  1.0 0.376694409
C  C48  1  0.12470000  0.15274000  0.81670000  1.0 0.5730191052
C  C49  1  0.15990000  0.24298000  0.65890000  1.0 0.6093671202
C  C50  1  0.18660000  0.23622000  0.56740000  1.0 0.0190761273
C  C51  1  0.11890000  0.20438000  0.51000000  1.0 -0.1397830318
C  C52  1  0.13570000  0.19849000  0.42310000  1.0 -0.2734722742
C  C53  1  0.22560000  0.22435000  0.39470000  1.0 0.0190761273
C  C54  1  0.28850000  0.25630000  0.45060000  1.0 -0.1397830318
C  C55  1  0.27070000  0.26270000  0.53730000  1.0 -0.1032451809
C  C56  1  0.05020000  0.16580000  0.36200000  1.0 0.399171647
C  C57  1  0.24530000  0.22296000  0.30020000  1.0 0.0190761273
C  C58  1  0.33640000  0.19709000  0.27350000  1.0 -0.2778719008
C  C59  1  0.35110000  0.20062000  0.18530000  1.0 -0.1504266307
C  C60  1  0.27670000  0.22991000  0.12300000  1.0 0.0112232867
C  C61  1  0.18770000  0.25610000  0.14980000  1.0 -0.1032451809
C  C62  1  0.17180000  0.25260000  0.23590000  1.0 -0.1504266307
C  C63  1  0.42560000  0.16640000  0.33730000  1.0 0.4120764559
C  C64  1  0.29670000  0.23394000  0.02940000  1.0 0.6093671202
C  C65  1  0.84690000  0.64280000  0.05760000  1.0 0.5991284281
C  C66  1  0.81120000  0.60048000  0.01210000  1.0 0.0190761273
C  C67  1  0.86080000  0.58908000  0.93980000  1.0 -0.173627627
C  C68  1  0.82830000  0.55010000  0.89650000  1.0 -0.2734722742
C  C69  1  0.74510000  0.52167000  0.92550000  1.0 0.0190761273
C  C70  1  0.69800000  0.53355000  0.99840000  1.0 -0.1764434994
C  C71  1  0.73040000  0.57227000  0.04170000  1.0 -0.121624911
C  C72  1  0.89160000  0.53940000  0.82150000  1.0 0.399171647
C  C73  1  0.71320000  0.47777000  0.88790000  1.0 0.0287477561
C  C74  1  0.59010000  0.46679000  0.82700000  1.0 -0.2183306374
C  C75  1  0.56170000  0.42430000  0.80270000  1.0 -0.121624911
C  C76  1  0.65640000  0.39343000  0.83840000  1.0 0.0190761273
C  C77  1  0.77990000  0.40450000  0.89700000  1.0 -0.0803666104
C  C78  1  0.80690000  0.44680000  0.92050000  1.0 -0.1397830318
C  C79  1  0.48140000  0.49840000  0.78570000  1.0 0.376694409
C  C80  1  0.62470000  0.34726000  0.81670000  1.0 0.5730191052
C  C81  1  0.65990000  0.25702000  0.65890000  1.0 0.6093671202
C  C82  1  0.68660000  0.26378000  0.56740000  1.0 0.0190761273
C  C83  1  0.61890000  0.29562000  0.51000000  1.0 -0.1397830318
C  C84  1  0.63570000  0.30151000  0.42310000  1.0 -0.2734722742
C  C85  1  0.72560000  0.27565000  0.39470000  1.0 0.0190761273
C  C86  1  0.78850000  0.24370000  0.45060000  1.0 -0.1397830318
C  C87  1  0.77070000  0.23730000  0.53730000  1.0 -0.1032451809
C  C88  1  0.55020000  0.33420000  0.36200000  1.0 0.3938419699
C  C89  1  0.74530000  0.27704000  0.30020000  1.0 0.0190761273
C  C90  1  0.83640000  0.30291000  0.27350000  1.0 -0.2778719008
C  C91  1  0.85110000  0.29938000  0.18530000  1.0 -0.1504266307
C  C92  1  0.77670000  0.27009000  0.12300000  1.0 0.0112232867
C  C93  1  0.68770000  0.24390000  0.14980000  1.0 -0.1032451809
C  C94  1  0.67180000  0.24740000  0.23590000  1.0 -0.1504266307
C  C95  1  0.92560000  0.33360000  0.33730000  1.0 0.4120764559
C  C96  1  0.79670000  0.26606000  0.02940000  1.0 0.6093671202
C  C97  1  0.65310000  0.14280000  0.94240000  1.0 0.5991284281
C  C98  1  0.68880000  0.10048000  0.98790000  1.0 0.0190761273
C  C99  1  0.63920000  0.08908000  0.06020000  1.0 -0.173627627
C  C100  1  0.67170000  0.05010000  0.10350000  1.0 -0.2734722742
C  C101  1  0.75490000  0.02167000  0.07450000  1.0 0.0190761273
C  C102  1  0.80200000  0.03355000  0.00160000  1.0 -0.1764434994
C  C103  1  0.76960000  0.07227000  0.95830000  1.0 -0.121624911
C  C104  1  0.60840000  0.03940000  0.17850000  1.0 0.399171647
C  C105  1  0.78680000  0.97777000  0.11210000  1.0 0.0287477561
C  C106  1  0.90990000  0.96679000  0.17300000  1.0 -0.2183306374
C  C107  1  0.93830000  0.92430000  0.19730000  1.0 -0.121624911
C  C108  1  0.84360000  0.89343000  0.16160000  1.0 0.0190761273
C  C109  1  0.72010000  0.90450000  0.10300000  1.0 -0.0803666104
C  C110  1  0.69310000  0.94680000  0.07950000  1.0 -0.1397830318
C  C111  1  0.01860000  0.99840000  0.21430000  1.0 0.376694409
C  C112  1  0.87530000  0.84726000  0.18330000  1.0 0.5730191052
C  C113  1  0.84010000  0.75702000  0.34110000  1.0 0.6093671202
C  C114  1  0.81340000  0.76378000  0.43260000  1.0 0.0190761273
C  C115  1  0.88110000  0.79562000  0.49000000  1.0 -0.1397830318
C  C116  1  0.86430000  0.80151000  0.57690000  1.0 -0.2734722742
C  C117  1  0.77440000  0.77565000  0.60530000  1.0 0.0287477561
C  C118  1  0.71150000  0.74370000  0.54940000  1.0 -0.1397830318
C  C119  1  0.72930000  0.73730000  0.46270000  1.0 -0.1032451809
C  C120  1  0.94980000  0.83420000  0.63800000  1.0 0.399171647
C  C121  1  0.75470000  0.77704000  0.69980000  1.0 0.0190761273
C  C122  1  0.66360000  0.80291000  0.72650000  1.0 -0.2778719008
C  C123  1  0.64890000  0.79938000  0.81470000  1.0 -0.1504266307
C  C124  1  0.72330000  0.77009000  0.87700000  1.0 0.0112232867
C  C125  1  0.81230000  0.74390000  0.85020000  1.0 -0.1032451809
C  C126  1  0.82820000  0.74740000  0.76410000  1.0 -0.1504266307
C  C127  1  0.57440000  0.83360000  0.66270000  1.0 0.4120764559
C  C128  1  0.70330000  0.76606000  0.97060000  1.0 0.6093671202
O  O1  1  0.04910000  0.33990000  0.95430000  1.0 -0.5306666017
O  O2  1  0.22950000  0.34279000  0.89780000  1.0 -0.5621256501
O  O3  1  0.49970000  0.66153000  0.22250000  1.0 -0.5231627047
O  O4  1  0.28300000  0.67960000  0.16230000  1.0 -0.6037179947
O  O5  1  0.44310000  0.72480000  0.33210000  1.0 -0.5033211529
O  O6  1  0.26020000  0.76622000  0.28190000  1.0 -0.5921153248
O  O7  1  0.10170000  0.71446000  0.98180000  1.0 -0.5231627047
O  O8  1  0.28640000  0.75574000  0.03043000  1.0 -0.6118073136
O  O9  1  0.03160000  0.28226000  0.80530000  1.0 -0.842013222
O  O10  1  0.41990000  0.27365000  0.88080000  1.0 -0.8179209799
O  O11  1  0.45090000  0.83990000  0.04570000  1.0 -0.5306666017
O  O12  1  0.27050000  0.84279000  0.10220000  1.0 -0.5621256501
O  O13  1  0.00030000  0.16153000  0.77750000  1.0 -0.5231627047
O  O14  1  0.21700000  0.17960000  0.83770000  1.0 -0.6037179947
O  O15  1  0.05690000  0.22480000  0.66790000  1.0 -0.5033211529
O  O16  1  0.23980000  0.26622000  0.71810000  1.0 -0.5921153248
O  O17  1  0.39830000  0.21446000  0.01820000  1.0 -0.5231627047
O  O18  1  0.21360000  0.25574000  0.96957000  1.0 -0.6118073136
O  O19  1  0.46840000  0.78226000  0.19470000  1.0 -0.842013222
O  O20  1  0.08010000  0.77365000  0.11920000  1.0 -0.8179209799
O  O21  1  0.95090000  0.66010000  0.04570000  1.0 -0.5306666017
O  O22  1  0.77050000  0.65721000  0.10220000  1.0 -0.5621256501
O  O23  1  0.50030000  0.33847000  0.77750000  1.0 -0.5231627047
O  O24  1  0.71700000  0.32040000  0.83770000  1.0 -0.6037179947
O  O25  1  0.55690000  0.27520000  0.66790000  1.0 -0.5033211529
O  O26  1  0.73980000  0.23378000  0.71810000  1.0 -0.5921153248
O  O27  1  0.89830000  0.28554000  0.01820000  1.0 -0.5231627047
O  O28  1  0.71360000  0.24426000  0.96957000  1.0 -0.6118073136
O  O29  1  0.96840000  0.71774000  0.19470000  1.0 -0.842013222
O  O30  1  0.58010000  0.72635000  0.11920000  1.0 -0.8179209799
O  O31  1  0.54910000  0.16010000  0.95430000  1.0 -0.5306666017
O  O32  1  0.72950000  0.15721000  0.89780000  1.0 -0.5621256501
O  O33  1  0.99970000  0.83847000  0.22250000  1.0 -0.5231627047
O  O34  1  0.78300000  0.82040000  0.16230000  1.0 -0.6037179947
O  O35  1  0.94310000  0.77520000  0.33210000  1.0 -0.5033211529
O  O36  1  0.76020000  0.73378000  0.28190000  1.0 -0.5921153248
O  O37  1  0.60170000  0.78554000  0.98180000  1.0 -0.5231627047
O  O38  1  0.78640000  0.74426000  0.03043000  1.0 -0.6118073136
O  O39  1  0.53160000  0.21774000  0.80530000  1.0 -0.842013222
O  O40  1  0.91990000  0.22635000  0.88080000  1.0 -0.8179209799
F  F1  1  0.05090000  0.42820000  0.20630000  1.0 -0.02084846
F  F2  1  0.01030000  0.49070000  0.14880000  1.0 -0.0019840603
F  F3  1  0.19730000  0.47750000  0.25140000  1.0 -0.0019840603
F  F4  1  0.46860000  0.46634000  0.24100000  1.0 -0.0482662421
F  F5  1  0.57830000  0.48730000  0.15180000  1.0 -0.0294143625
F  F6  1  0.61330000  0.51560000  0.28550000  1.0 0.0287477561
F  F7  1  0.53360000  0.64570000  0.60310000  1.0 0.0287477561
F  F8  1  0.53670000  0.68600000  0.71430000  1.0 -0.0594646761
F  F9  1  0.38370000  0.63980000  0.67680000  1.0 -0.0294143625
F  F10  1  0.13890000  0.64060000  0.62320000  1.0 0.0112232867
F  F11  1  0.99100000  0.68900000  0.59050000  1.0 -0.0594646761
F  F12  1  0.99170000  0.64590000  0.69760000  1.0 -0.0104539683
F  F13  1  0.41800000  0.62720000  0.59200000  1.0 -0.0803666104
F  F14  1  0.57950000  0.66990000  0.64710000  1.0 0.0024928982
F  F15  1  0.42500000  0.65920000  0.71560000  1.0 0.0190761273
F  F16  1  0.10850000  0.62560000  0.69590000  1.0 -0.0912667968
F  F17  1  0.94720000  0.66810000  0.66250000  1.0 0.0024928982
F  F18  1  0.08430000  0.66450000  0.58000000  1.0 0.0467189617
F  F19  1  0.97410000  0.46010000  0.14770000  1.0 -0.0019840603
F  F20  1  0.14100000  0.42960000  0.24360000  1.0 -0.0294143625
F  F21  1  0.15100000  0.49610000  0.22100000  1.0 0.0190761273
F  F22  1  0.49000000  0.46280000  0.18600000  1.0 -0.02084846
F  F23  1  0.54400000  0.50100000  0.30650000  1.0 0.0423831535
F  F24  1  0.63740000  0.51270000  0.20200000  1.0 -0.0019840603
F  F25  1  0.44910000  0.92820000  0.79370000  1.0 -0.02084846
F  F26  1  0.48970000  0.99070000  0.85120000  1.0 -0.0019840603
F  F27  1  0.30270000  0.97750000  0.74860000  1.0 -0.0019840603
F  F28  1  0.03140000  0.96634000  0.75900000  1.0 -0.0482662421
F  F29  1  0.92170000  0.98730000  0.84820000  1.0 -0.0294143625
F  F30  1  0.88670000  0.01560000  0.71450000  1.0 0.0287477561
F  F31  1  0.96640000  0.14570000  0.39690000  1.0 0.0287477561
F  F32  1  0.96330000  0.18600000  0.28570000  1.0 -0.0594646761
F  F33  1  0.11630000  0.13980000  0.32320000  1.0 -0.0294143625
F  F34  1  0.36110000  0.14060000  0.37680000  1.0 0.0112232867
F  F35  1  0.50900000  0.18900000  0.40950000  1.0 -0.0594646761
F  F36  1  0.50830000  0.14590000  0.30240000  1.0 -0.0104539683
F  F37  1  0.08200000  0.12720000  0.40800000  1.0 -0.0803666104
F  F38  1  0.92050000  0.16990000  0.35290000  1.0 0.0024928982
F  F39  1  0.07500000  0.15920000  0.28440000  1.0 0.0190761273
F  F40  1  0.39150000  0.12560000  0.30410000  1.0 -0.0912667968
F  F41  1  0.55280000  0.16810000  0.33750000  1.0 0.0024928982
F  F42  1  0.41570000  0.16450000  0.42000000  1.0 0.0467189617
F  F43  1  0.52590000  0.96010000  0.85230000  1.0 0.0024928982
F  F44  1  0.35900000  0.92960000  0.75640000  1.0 -0.02084846
F  F45  1  0.34900000  0.99610000  0.77900000  1.0 0.0190761273
F  F46  1  0.01000000  0.96280000  0.81400000  1.0 -0.0104539683
F  F47  1  0.95600000  0.00100000  0.69350000  1.0 0.0423831535
F  F48  1  0.86260000  0.01270000  0.79800000  1.0 0.0024928982
F  F49  1  0.94910000  0.57180000  0.79370000  1.0 -0.02084846
F  F50  1  0.98970000  0.50930000  0.85120000  1.0 0.0024928982
F  F51  1  0.80270000  0.52250000  0.74860000  1.0 -0.0019840603
F  F52  1  0.53140000  0.53366000  0.75900000  1.0 -0.0482662421
F  F53  1  0.42170000  0.51270000  0.84820000  1.0 -0.0294143625
F  F54  1  0.38670000  0.48440000  0.71450000  1.0 0.0287477561
F  F55  1  0.46640000  0.35430000  0.39690000  1.0 0.0287477561
F  F56  1  0.46330000  0.31400000  0.28570000  1.0 -0.0594646761
F  F57  1  0.61630000  0.36020000  0.32320000  1.0 -0.0294143625
F  F58  1  0.86110000  0.35940000  0.37680000  1.0 0.0112232867
F  F59  1  0.00900000  0.31100000  0.40950000  1.0 -0.0594646761
F  F60  1  0.00830000  0.35410000  0.30240000  1.0 -0.0104539683
F  F61  1  0.58200000  0.37280000  0.40800000  1.0 -0.0803666104
F  F62  1  0.42050000  0.33010000  0.35290000  1.0 0.0024928982
F  F63  1  0.57500000  0.34080000  0.28440000  1.0 0.0190761273
F  F64  1  0.89150000  0.37440000  0.30410000  1.0 -0.0912667968
F  F65  1  0.05280000  0.33190000  0.33750000  1.0 0.0112232867
F  F66  1  0.91570000  0.33550000  0.42000000  1.0 0.0423831535
F  F67  1  0.02590000  0.53990000  0.85230000  1.0 0.0024928982
F  F68  1  0.85900000  0.57040000  0.75640000  1.0 -0.02084846
F  F69  1  0.84900000  0.50390000  0.77900000  1.0 0.0190761273
F  F70  1  0.51000000  0.53720000  0.81400000  1.0 -0.0104539683
F  F71  1  0.45600000  0.49900000  0.69350000  1.0 0.0423831535
F  F72  1  0.36260000  0.48730000  0.79800000  1.0 0.0024928982
F  F73  1  0.55090000  0.07180000  0.20630000  1.0 -0.02084846
F  F74  1  0.51030000  0.00930000  0.14880000  1.0 0.0024928982
F  F75  1  0.69730000  0.02250000  0.25140000  1.0 -0.0019840603
F  F76  1  0.96860000  0.03366000  0.24100000  1.0 -0.0482662421
F  F77  1  0.07830000  0.01270000  0.15180000  1.0 -0.0294143625
F  F78  1  0.11330000  0.98440000  0.28550000  1.0 0.0287477561
F  F79  1  0.03360000  0.85430000  0.60310000  1.0 0.0287477561
F  F80  1  0.03670000  0.81400000  0.71430000  1.0 -0.0594646761
F  F81  1  0.88370000  0.86020000  0.67680000  1.0 -0.0294143625
F  F82  1  0.63890000  0.85940000  0.62320000  1.0 0.0112232867
F  F83  1  0.49100000  0.81100000  0.59050000  1.0 -0.0594646761
F  F84  1  0.49170000  0.85410000  0.69760000  1.0 -0.0104539683
F  F85  1  0.91800000  0.87280000  0.59200000  1.0 -0.0803666104
F  F86  1  0.07950000  0.83010000  0.64710000  1.0 0.0024928982
F  F87  1  0.92500000  0.84080000  0.71560000  1.0 0.0190761273
F  F88  1  0.60850000  0.87440000  0.69590000  1.0 -0.0912667968
F  F89  1  0.44720000  0.83190000  0.66250000  1.0 0.0024928982
F  F90  1  0.58430000  0.83550000  0.58000000  1.0 0.0423831535
F  F91  1  0.47410000  0.03990000  0.14770000  1.0 0.0024928982
F  F92  1  0.64100000  0.07040000  0.24360000  1.0 -0.0294143625
F  F93  1  0.65100000  0.00390000  0.22100000  1.0 0.0190761273
F  F94  1  0.99000000  0.03720000  0.18600000  1.0 -0.02084846
F  F95  1  0.04400000  0.99900000  0.30650000  1.0 0.0423831535
F  F96  1  0.13740000  0.98730000  0.20200000  1.0 0.0024928982
