# DDEC6 charges by PACMAN v1.1 (https://github.com/mtap-research/PACMAN-charge/)
data_ZIWLEZ_ASR_pacman
_symmetry_space_group_name_H-M   'P 1'
_cell_length_a   10.35940000
_cell_length_b   33.17240000
_cell_length_c   15.27450000
_cell_angle_alpha   90.00000000
_cell_angle_beta   103.76900000
_cell_angle_gamma   90.00000000
_symmetry_Int_Tables_number   1
_chemical_formula_structural   Cu3H14C32(O5F12)2
_chemical_formula_sum   'Cu12 H56 C128 O40 F96'
_cell_volume   5098.18313040
_cell_formula_units_Z   4
loop_
 _symmetry_equiv_pos_site_id
 _symmetry_equiv_pos_as_xyz
  1  'x, y, z'
loop_
 _atom_site_type_symbol
 _atom_site_label
 _atom_site_symmetry_multiplicity
 _atom_site_fract_x
 _atom_site_fract_y
 _atom_site_fract_z
 _atom_site_occupancy
 _atom_site_charge
Cu  Cu1  1  0.03922000  0.27995000  0.88940000  1.0 0.8971968505
Cu  Cu2  1  0.26549000  0.22081000  0.95124000  1.0 0.9709883098
Cu  Cu3  1  0.50788000  0.28143000  0.02393000  1.0 0.9264335546
Cu  Cu4  1  0.46078000  0.77995000  0.11060000  1.0 0.8971968505
Cu  Cu5  1  0.23451000  0.72081000  0.04876000  1.0 0.9709883098
Cu  Cu6  1  0.99212000  0.78143000  0.97607000  1.0 0.9264335546
Cu  Cu7  1  0.96078000  0.72005000  0.11060000  1.0 0.8971968505
Cu  Cu8  1  0.73451000  0.77919000  0.04876000  1.0 0.9709883098
Cu  Cu9  1  0.49212000  0.71857000  0.97607000  1.0 0.9264335546
Cu  Cu10  1  0.53922000  0.22005000  0.88940000  1.0 0.8971968505
Cu  Cu11  1  0.76549000  0.27919000  0.95124000  1.0 0.9709883098
Cu  Cu12  1  0.00788000  0.21857000  0.02393000  1.0 0.9264335546
H  H1  1  0.53680000  0.22180000  0.01280000  1.0 0.3354673598
H  H2  1  0.03420000  0.20740000  0.87600000  1.0 0.4006554101
H  H3  1  0.00600000  0.40880000  0.83610000  1.0 0.0812918681
H  H4  1  0.41940000  0.45940000  0.97900000  1.0 0.0904277024
H  H5  1  0.37840000  0.39090000  0.97880000  1.0 0.1116634838
H  H6  1  0.42150000  0.59730000  0.86310000  1.0 0.0904277024
H  H7  1  0.19790000  0.59400000  0.04360000  1.0 0.1116634838
H  H8  1  0.16340000  0.52610000  0.01730000  1.0 0.0904277024
H  H9  1  0.10460000  0.31190000  0.64520000  1.0 0.0904277024
H  H10  1  0.40110000  0.23250000  0.54210000  1.0 0.0904277024
H  H11  1  0.37370000  0.22350000  0.68690000  1.0 0.1116634838
H  H12  1  0.45340000  0.31260000  0.27200000  1.0 0.0962614823
H  H13  1  0.15620000  0.23230000  0.22090000  1.0 0.1116634838
H  H14  1  0.13750000  0.23770000  0.36720000  1.0 0.0904277024
H  H15  1  0.96320000  0.72180000  0.98720000  1.0 0.3354673598
H  H16  1  0.46580000  0.70740000  0.12400000  1.0 0.4006554101
H  H17  1  0.49400000  0.90880000  0.16390000  1.0 0.0812918681
H  H18  1  0.08060000  0.95940000  0.02100000  1.0 0.0904277024
H  H19  1  0.12160000  0.89090000  0.02120000  1.0 0.1116634838
H  H20  1  0.07850000  0.09730000  0.13690000  1.0 0.0904277024
H  H21  1  0.30210000  0.09400000  0.95640000  1.0 0.1116634838
H  H22  1  0.33660000  0.02610000  0.98270000  1.0 0.0904277024
H  H23  1  0.39540000  0.81190000  0.35480000  1.0 0.0904277024
H  H24  1  0.09890000  0.73250000  0.45790000  1.0 0.0904277024
H  H25  1  0.12630000  0.72350000  0.31310000  1.0 0.1116634838
H  H26  1  0.04660000  0.81260000  0.72800000  1.0 0.0962614823
H  H27  1  0.34380000  0.73230000  0.77910000  1.0 0.1116634838
H  H28  1  0.36250000  0.73770000  0.63280000  1.0 0.0904277024
H  H29  1  0.46320000  0.77820000  0.98720000  1.0 0.3354673598
H  H30  1  0.96580000  0.79260000  0.12400000  1.0 0.4006554101
H  H31  1  0.99400000  0.59120000  0.16390000  1.0 0.0812918681
H  H32  1  0.58060000  0.54060000  0.02100000  1.0 0.0904277024
H  H33  1  0.62160000  0.60910000  0.02120000  1.0 0.1116634838
H  H34  1  0.57850000  0.40270000  0.13690000  1.0 0.0904277024
H  H35  1  0.80210000  0.40600000  0.95640000  1.0 0.1116634838
H  H36  1  0.83660000  0.47390000  0.98270000  1.0 0.0904277024
H  H37  1  0.89540000  0.68810000  0.35480000  1.0 0.0962614823
H  H38  1  0.59890000  0.76750000  0.45790000  1.0 0.0904277024
H  H39  1  0.62630000  0.77650000  0.31310000  1.0 0.1116634838
H  H40  1  0.54660000  0.68740000  0.72800000  1.0 0.0962614823
H  H41  1  0.84380000  0.76770000  0.77910000  1.0 0.1116634838
H  H42  1  0.86250000  0.76230000  0.63280000  1.0 0.0904277024
H  H43  1  0.03680000  0.27820000  0.01280000  1.0 0.3354673598
H  H44  1  0.53420000  0.29260000  0.87600000  1.0 0.4006554101
H  H45  1  0.50600000  0.09120000  0.83610000  1.0 0.0812918681
H  H46  1  0.91940000  0.04060000  0.97900000  1.0 0.0904277024
H  H47  1  0.87840000  0.10910000  0.97880000  1.0 0.1116634838
H  H48  1  0.92150000  0.90270000  0.86310000  1.0 0.0904277024
H  H49  1  0.69790000  0.90600000  0.04360000  1.0 0.1116634838
H  H50  1  0.66340000  0.97390000  0.01730000  1.0 0.0904277024
H  H51  1  0.60460000  0.18810000  0.64520000  1.0 0.0904277024
H  H52  1  0.90110000  0.26750000  0.54210000  1.0 0.0904277024
H  H53  1  0.87370000  0.27650000  0.68690000  1.0 0.1116634838
H  H54  1  0.95340000  0.18740000  0.27200000  1.0 0.0962614823
H  H55  1  0.65620000  0.26770000  0.22090000  1.0 0.1116634838
H  H56  1  0.63750000  0.26230000  0.36720000  1.0 0.0904277024
C  C1  1  0.16410000  0.34866000  0.90970000  1.0 0.5610815797
C  C2  1  0.18930000  0.39342000  0.90820000  1.0 0.0089204242
C  C3  1  0.08860000  0.41920000  0.86510000  1.0 -0.1241356034
C  C4  1  0.11140000  0.46102000  0.86540000  1.0 -0.2274346475
C  C5  1  0.23560000  0.47634000  0.90820000  1.0 0.0089204242
C  C6  1  0.33600000  0.44950000  0.95050000  1.0 -0.1778378572
C  C7  1  0.31140000  0.40836000  0.95030000  1.0 -0.079756574
C  C8  1  0.00090000  0.48770000  0.81710000  1.0 0.3584695075
C  C9  1  0.26360000  0.52063000  0.92040000  1.0 0.0023236176
C  C10  1  0.34310000  0.54225000  0.87440000  1.0 -0.2194037001
C  C11  1  0.36730000  0.58308000  0.89280000  1.0 -0.1293643594
C  C12  1  0.31170000  0.60276000  0.95500000  1.0 -0.0014786454
C  C13  1  0.23490000  0.58117000  0.00120000  1.0 -0.0933541481
C  C14  1  0.21310000  0.54050000  0.98460000  1.0 -0.1918783497
C  C15  1  0.41020000  0.52210000  0.80890000  1.0 0.385522059
C  C16  1  0.32970000  0.64720000  0.97160000  1.0 0.5830537889
C  C17  1  0.20960000  0.26065000  0.77230000  1.0 0.6032862875
C  C18  1  0.23670000  0.26682000  0.68110000  1.0 0.0023236176
C  C19  1  0.16400000  0.29560000  0.62430000  1.0 -0.1293643594
C  C20  1  0.17790000  0.30058000  0.53720000  1.0 -0.2659215417
C  C21  1  0.26960000  0.27740000  0.50590000  1.0 0.0282514182
C  C22  1  0.34090000  0.24870000  0.56260000  1.0 -0.1666916844
C  C23  1  0.32480000  0.24320000  0.64990000  1.0 -0.1040937092
C  C24  1  0.08410000  0.32950000  0.47710000  1.0 0.3796083842
C  C25  1  0.28390000  0.27834000  0.41010000  1.0 0.0282514182
C  C26  1  0.37830000  0.30089000  0.38010000  1.0 -0.2830663707
C  C27  1  0.39000000  0.29740000  0.29120000  1.0 -0.1293643594
C  C28  1  0.30750000  0.27130000  0.23080000  1.0 0.0023236176
C  C29  1  0.21290000  0.24950000  0.26050000  1.0 -0.1062124513
C  C30  1  0.20170000  0.25280000  0.34850000  1.0 -0.145869029
C  C31  1  0.47390000  0.32751000  0.44400000  1.0 0.42085906
C  C32  1  0.32680000  0.26690000  0.13640000  1.0 0.6032862875
C  C33  1  0.33590000  0.84866000  0.09030000  1.0 0.5610815797
C  C34  1  0.31070000  0.89342000  0.09180000  1.0 0.0089204242
C  C35  1  0.41140000  0.91920000  0.13490000  1.0 -0.1241356034
C  C36  1  0.38860000  0.96102000  0.13460000  1.0 -0.2274346475
C  C37  1  0.26440000  0.97634000  0.09180000  1.0 0.0089204242
C  C38  1  0.16400000  0.94950000  0.04950000  1.0 -0.1778378572
C  C39  1  0.18860000  0.90836000  0.04970000  1.0 -0.079756574
C  C40  1  0.49910000  0.98770000  0.18290000  1.0 0.3533322328
C  C41  1  0.23640000  0.02063000  0.07960000  1.0 0.0023236176
C  C42  1  0.15690000  0.04225000  0.12560000  1.0 -0.2194037001
C  C43  1  0.13270000  0.08308000  0.10720000  1.0 -0.1293643594
C  C44  1  0.18830000  0.10276000  0.04500000  1.0 -0.0014786454
C  C45  1  0.26510000  0.08117000  0.99880000  1.0 -0.0933541481
C  C46  1  0.28690000  0.04050000  0.01540000  1.0 -0.1918783497
C  C47  1  0.08980000  0.02210000  0.19110000  1.0 0.3796083842
C  C48  1  0.17030000  0.14720000  0.02840000  1.0 0.5830537889
C  C49  1  0.29040000  0.76065000  0.22770000  1.0 0.6032862875
C  C50  1  0.26330000  0.76682000  0.31890000  1.0 0.0023236176
C  C51  1  0.33600000  0.79560000  0.37570000  1.0 -0.1293643594
C  C52  1  0.32210000  0.80058000  0.46280000  1.0 -0.264383265
C  C53  1  0.23040000  0.77740000  0.49410000  1.0 0.0282514182
C  C54  1  0.15910000  0.74870000  0.43740000  1.0 -0.1666916844
C  C55  1  0.17520000  0.74320000  0.35010000  1.0 -0.1040937092
C  C56  1  0.41590000  0.82950000  0.52290000  1.0 0.3796083842
C  C57  1  0.21610000  0.77834000  0.58990000  1.0 0.0282514182
C  C58  1  0.12170000  0.80089000  0.61990000  1.0 -0.2866130259
C  C59  1  0.11000000  0.79740000  0.70880000  1.0 -0.1293643594
C  C60  1  0.19250000  0.77130000  0.76920000  1.0 0.0023236176
C  C61  1  0.28710000  0.74950000  0.73950000  1.0 -0.1062124513
C  C62  1  0.29830000  0.75280000  0.65150000  1.0 -0.145869029
C  C63  1  0.02610000  0.82751000  0.55600000  1.0 0.42085906
C  C64  1  0.17320000  0.76690000  0.86360000  1.0 0.6032862875
C  C65  1  0.83590000  0.65134000  0.09030000  1.0 0.5610815797
C  C66  1  0.81070000  0.60658000  0.09180000  1.0 0.0089204242
C  C67  1  0.91140000  0.58080000  0.13490000  1.0 -0.1241356034
C  C68  1  0.88860000  0.53898000  0.13460000  1.0 -0.2274346475
C  C69  1  0.76440000  0.52366000  0.09180000  1.0 0.0089204242
C  C70  1  0.66400000  0.55050000  0.04950000  1.0 -0.1778378572
C  C71  1  0.68860000  0.59164000  0.04970000  1.0 -0.079756574
C  C72  1  0.99910000  0.51230000  0.18290000  1.0 0.3533322328
C  C73  1  0.73640000  0.47937000  0.07960000  1.0 0.0023236176
C  C74  1  0.65690000  0.45775000  0.12560000  1.0 -0.2194037001
C  C75  1  0.63270000  0.41692000  0.10720000  1.0 -0.1293643594
C  C76  1  0.68830000  0.39724000  0.04500000  1.0 -0.0014786454
C  C77  1  0.76510000  0.41883000  0.99880000  1.0 -0.0933541481
C  C78  1  0.78690000  0.45950000  0.01540000  1.0 -0.1918783497
C  C79  1  0.58980000  0.47790000  0.19110000  1.0 0.3796083842
C  C80  1  0.67030000  0.35280000  0.02840000  1.0 0.5830537889
C  C81  1  0.79040000  0.73935000  0.22770000  1.0 0.6032862875
C  C82  1  0.76330000  0.73318000  0.31890000  1.0 0.0023236176
C  C83  1  0.83600000  0.70440000  0.37570000  1.0 -0.1293643594
C  C84  1  0.82210000  0.69942000  0.46280000  1.0 -0.264383265
C  C85  1  0.73040000  0.72260000  0.49410000  1.0 0.0353754599
C  C86  1  0.65910000  0.75130000  0.43740000  1.0 -0.1666916844
C  C87  1  0.67520000  0.75680000  0.35010000  1.0 -0.1040937092
C  C88  1  0.91590000  0.67050000  0.52290000  1.0 0.3796083842
C  C89  1  0.71610000  0.72166000  0.58990000  1.0 0.0282514182
C  C90  1  0.62170000  0.69911000  0.61990000  1.0 -0.2866130259
C  C91  1  0.61000000  0.70260000  0.70880000  1.0 -0.1293643594
C  C92  1  0.69250000  0.72870000  0.76920000  1.0 0.0023236176
C  C93  1  0.78710000  0.75050000  0.73950000  1.0 -0.1062124513
C  C94  1  0.79830000  0.74720000  0.65150000  1.0 -0.145869029
C  C95  1  0.52610000  0.67249000  0.55600000  1.0 0.42085906
C  C96  1  0.67320000  0.73310000  0.86360000  1.0 0.6032862875
C  C97  1  0.66410000  0.15134000  0.90970000  1.0 0.5610815797
C  C98  1  0.68930000  0.10658000  0.90820000  1.0 0.0089204242
C  C99  1  0.58860000  0.08080000  0.86510000  1.0 -0.1241356034
C  C100  1  0.61140000  0.03898000  0.86540000  1.0 -0.2274346475
C  C101  1  0.73560000  0.02366000  0.90820000  1.0 0.0089204242
C  C102  1  0.83600000  0.05050000  0.95050000  1.0 -0.1778378572
C  C103  1  0.81140000  0.09164000  0.95030000  1.0 -0.079756574
C  C104  1  0.50090000  0.01230000  0.81710000  1.0 0.3533322328
C  C105  1  0.76360000  0.97937000  0.92040000  1.0 0.0023236176
C  C106  1  0.84310000  0.95775000  0.87440000  1.0 -0.2194037001
C  C107  1  0.86730000  0.91692000  0.89280000  1.0 -0.1293643594
C  C108  1  0.81170000  0.89724000  0.95500000  1.0 -0.0014786454
C  C109  1  0.73490000  0.91883000  0.00120000  1.0 -0.0933541481
C  C110  1  0.71310000  0.95950000  0.98460000  1.0 -0.1918783497
C  C111  1  0.91020000  0.97790000  0.80890000  1.0 0.3796083842
C  C112  1  0.82970000  0.85280000  0.97160000  1.0 0.5830537889
C  C113  1  0.70960000  0.23935000  0.77230000  1.0 0.6032862875
C  C114  1  0.73670000  0.23318000  0.68110000  1.0 0.0023236176
C  C115  1  0.66400000  0.20440000  0.62430000  1.0 -0.1293643594
C  C116  1  0.67790000  0.19942000  0.53720000  1.0 -0.264383265
C  C117  1  0.76960000  0.22260000  0.50590000  1.0 0.0282514182
C  C118  1  0.84090000  0.25130000  0.56260000  1.0 -0.1666916844
C  C119  1  0.82480000  0.25680000  0.64990000  1.0 -0.1040937092
C  C120  1  0.58410000  0.17050000  0.47710000  1.0 0.3796083842
C  C121  1  0.78390000  0.22166000  0.41010000  1.0 0.0282514182
C  C122  1  0.87830000  0.19911000  0.38010000  1.0 -0.2866130259
C  C123  1  0.89000000  0.20260000  0.29120000  1.0 -0.1293643594
C  C124  1  0.80750000  0.22870000  0.23080000  1.0 0.0023236176
C  C125  1  0.71290000  0.25050000  0.26050000  1.0 -0.1062124513
C  C126  1  0.70170000  0.24720000  0.34850000  1.0 -0.145869029
C  C127  1  0.97390000  0.17249000  0.44400000  1.0 0.42085906
C  C128  1  0.82680000  0.23310000  0.13640000  1.0 0.6032862875
O  O1  1  0.04160000  0.33770000  0.88850000  1.0 -0.5242253329
O  O2  1  0.26060000  0.32563000  0.93090000  1.0 -0.5760237958
O  O3  1  0.42890000  0.66350000  0.95110000  1.0 -0.5242253329
O  O4  1  0.24500000  0.66380000  0.00520000  1.0 -0.5242253329
O  O5  1  0.10520000  0.27742000  0.78260000  1.0 -0.508592182
O  O6  1  0.28930000  0.23984000  0.83020000  1.0 -0.6003121521
O  O7  1  0.43080000  0.28344000  0.12480000  1.0 -0.5012089696
O  O8  1  0.24360000  0.24766000  0.07860000  1.0 -0.6368918803
O  O9  1  0.45480000  0.22470000  0.99120000  1.0 -0.7805465545
O  O10  1  0.07500000  0.22321000  0.91610000  1.0 -0.8037771073
O  O11  1  0.45840000  0.83770000  0.11150000  1.0 -0.5242253329
O  O12  1  0.23940000  0.82563000  0.06910000  1.0 -0.5760237958
O  O13  1  0.07110000  0.16350000  0.04890000  1.0 -0.5242253329
O  O14  1  0.25500000  0.16380000  0.99480000  1.0 -0.5242253329
O  O15  1  0.39480000  0.77742000  0.21740000  1.0 -0.508592182
O  O16  1  0.21070000  0.73984000  0.16980000  1.0 -0.6003121521
O  O17  1  0.06920000  0.78344000  0.87520000  1.0 -0.5012089696
O  O18  1  0.25640000  0.74766000  0.92140000  1.0 -0.6368918803
O  O19  1  0.04520000  0.72470000  0.00880000  1.0 -0.7805465545
O  O20  1  0.42500000  0.72321000  0.08390000  1.0 -0.8037771073
O  O21  1  0.95840000  0.66230000  0.11150000  1.0 -0.5242253329
O  O22  1  0.73940000  0.67437000  0.06910000  1.0 -0.5760237958
O  O23  1  0.57110000  0.33650000  0.04890000  1.0 -0.5242253329
O  O24  1  0.75500000  0.33620000  0.99480000  1.0 -0.5242253329
O  O25  1  0.89480000  0.72258000  0.21740000  1.0 -0.508592182
O  O26  1  0.71070000  0.76016000  0.16980000  1.0 -0.6003121521
O  O27  1  0.56920000  0.71656000  0.87520000  1.0 -0.5012089696
O  O28  1  0.75640000  0.75234000  0.92140000  1.0 -0.6368918803
O  O29  1  0.54520000  0.77530000  0.00880000  1.0 -0.7805465545
O  O30  1  0.92500000  0.77679000  0.08390000  1.0 -0.8037771073
O  O31  1  0.54160000  0.16230000  0.88850000  1.0 -0.5242253329
O  O32  1  0.76060000  0.17437000  0.93090000  1.0 -0.5760237958
O  O33  1  0.92890000  0.83650000  0.95110000  1.0 -0.5242253329
O  O34  1  0.74500000  0.83620000  0.00520000  1.0 -0.5242253329
O  O35  1  0.60520000  0.22258000  0.78260000  1.0 -0.508592182
O  O36  1  0.78930000  0.26016000  0.83020000  1.0 -0.6003121521
O  O37  1  0.93080000  0.21656000  0.12480000  1.0 -0.5012089696
O  O38  1  0.74360000  0.25234000  0.07860000  1.0 -0.6368918803
O  O39  1  0.95480000  0.27530000  0.99120000  1.0 -0.7805465545
O  O40  1  0.57500000  0.27679000  0.91610000  1.0 -0.8037771073
F  F1  1  0.90130000  0.46753000  0.76560000  1.0 0.0504928098
F  F2  1  0.95060000  0.51035000  0.87480000  1.0 -0.0308199896
F  F3  1  0.04040000  0.51427000  0.76480000  1.0 0.0023236176
F  F4  1  0.00830000  0.35020000  0.51860000  1.0 0.0089204242
F  F5  1  0.14200000  0.35260000  0.42810000  1.0 0.0089204242
F  F6  1  0.99210000  0.30680000  0.41390000  1.0 -0.0308199896
F  F7  1  0.32420000  0.49925000  0.75060000  1.0 -0.0118759413
F  F8  1  0.46140000  0.54883000  0.76130000  1.0 0.0089204242
F  F9  1  0.50920000  0.49780000  0.84980000  1.0 -0.016520994
F  F10  1  0.41510000  0.34920000  0.49690000  1.0 -0.016520994
F  F11  1  0.56660000  0.30600000  0.50030000  1.0 -0.074456108
F  F12  1  0.53100000  0.35410000  0.40040000  1.0 0.0209029012
F  F13  1  0.40280000  0.48220000  0.81230000  1.0 0.0282514182
F  F14  1  0.35500000  0.53320000  0.72410000  1.0 0.0023236176
F  F15  1  0.53870000  0.53190000  0.82500000  1.0 -0.0118759413
F  F16  1  0.41390000  0.35770000  0.47480000  1.0 -0.0382948408
F  F17  1  0.53800000  0.30730000  0.51740000  1.0 -0.0588439938
F  F18  1  0.56800000  0.34210000  0.40830000  1.0 0.0023236176
F  F19  1  0.88610000  0.47920000  0.83750000  1.0 -0.0118759413
F  F20  1  0.97810000  0.48250000  0.72740000  1.0 0.0089204242
F  F21  1  0.02400000  0.52630000  0.83200000  1.0 0.0574313763
F  F22  1  0.96120000  0.31780000  0.45650000  1.0 -0.0459730649
F  F23  1  0.09000000  0.36510000  0.52680000  1.0 0.0089204242
F  F24  1  0.12800000  0.34070000  0.40640000  1.0 0.0282514182
F  F25  1  0.59870000  0.96753000  0.23440000  1.0 0.0504928098
F  F26  1  0.54940000  0.01035000  0.12520000  1.0 -0.0308199896
F  F27  1  0.45960000  0.01427000  0.23520000  1.0 0.0023236176
F  F28  1  0.49170000  0.85020000  0.48140000  1.0 0.0089204242
F  F29  1  0.35800000  0.85260000  0.57190000  1.0 0.0089204242
F  F30  1  0.50790000  0.80680000  0.58610000  1.0 -0.0308199896
F  F31  1  0.17580000  0.99925000  0.24940000  1.0 -0.0118759413
F  F32  1  0.03860000  0.04883000  0.23870000  1.0 0.0089204242
F  F33  1  0.99080000  0.99780000  0.15020000  1.0 -0.016520994
F  F34  1  0.08490000  0.84920000  0.50310000  1.0 -0.016520994
F  F35  1  0.93340000  0.80600000  0.49970000  1.0 -0.074456108
F  F36  1  0.96900000  0.85410000  0.59960000  1.0 0.0209029012
F  F37  1  0.09720000  0.98220000  0.18770000  1.0 0.0282514182
F  F38  1  0.14500000  0.03320000  0.27590000  1.0 0.0023236176
F  F39  1  0.96130000  0.03190000  0.17500000  1.0 -0.016520994
F  F40  1  0.08610000  0.85770000  0.52520000  1.0 -0.0308199896
F  F41  1  0.96200000  0.80730000  0.48260000  1.0 -0.0588439938
F  F42  1  0.93200000  0.84210000  0.59170000  1.0 0.0023236176
F  F43  1  0.61390000  0.97920000  0.16250000  1.0 -0.0118759413
F  F44  1  0.52190000  0.98250000  0.27260000  1.0 0.0209029012
F  F45  1  0.47600000  0.02630000  0.16800000  1.0 0.0504928098
F  F46  1  0.53880000  0.81780000  0.54350000  1.0 -0.0459730649
F  F47  1  0.41000000  0.86510000  0.47320000  1.0 0.0089204242
F  F48  1  0.37200000  0.84070000  0.59360000  1.0 0.0282514182
F  F49  1  0.09870000  0.53247000  0.23440000  1.0 0.0504928098
F  F50  1  0.04940000  0.48965000  0.12520000  1.0 -0.0308199896
F  F51  1  0.95960000  0.48573000  0.23520000  1.0 0.0023236176
F  F52  1  0.99170000  0.64980000  0.48140000  1.0 0.0089204242
F  F53  1  0.85800000  0.64740000  0.57190000  1.0 0.0089204242
F  F54  1  0.00790000  0.69320000  0.58610000  1.0 -0.0308199896
F  F55  1  0.67580000  0.50075000  0.24940000  1.0 -0.0118759413
F  F56  1  0.53860000  0.45117000  0.23870000  1.0 0.0089204242
F  F57  1  0.49080000  0.50220000  0.15020000  1.0 -0.016520994
F  F58  1  0.58490000  0.65080000  0.50310000  1.0 -0.016520994
F  F59  1  0.43340000  0.69400000  0.49970000  1.0 -0.074456108
F  F60  1  0.46900000  0.64590000  0.59960000  1.0 0.0209029012
F  F61  1  0.59720000  0.51780000  0.18770000  1.0 0.0209029012
F  F62  1  0.64500000  0.46680000  0.27590000  1.0 0.0023236176
F  F63  1  0.46130000  0.46810000  0.17500000  1.0 -0.0118759413
F  F64  1  0.58610000  0.64230000  0.52520000  1.0 -0.0382948408
F  F65  1  0.46200000  0.69270000  0.48260000  1.0 -0.0588439938
F  F66  1  0.43200000  0.65790000  0.59170000  1.0 0.0023236176
F  F67  1  0.11390000  0.52080000  0.16250000  1.0 -0.0118759413
F  F68  1  0.02190000  0.51750000  0.27260000  1.0 0.0209029012
F  F69  1  0.97600000  0.47370000  0.16800000  1.0 0.0504928098
F  F70  1  0.03880000  0.68220000  0.54350000  1.0 -0.0382948408
F  F71  1  0.91000000  0.63490000  0.47320000  1.0 0.0089204242
F  F72  1  0.87200000  0.65930000  0.59360000  1.0 0.0282514182
F  F73  1  0.40130000  0.03247000  0.76560000  1.0 0.0504928098
F  F74  1  0.45060000  0.98965000  0.87480000  1.0 -0.0308199896
F  F75  1  0.54040000  0.98573000  0.76480000  1.0 -0.0014786454
F  F76  1  0.50830000  0.14980000  0.51860000  1.0 0.0089204242
F  F77  1  0.64200000  0.14740000  0.42810000  1.0 0.0089204242
F  F78  1  0.49210000  0.19320000  0.41390000  1.0 -0.0308199896
F  F79  1  0.82420000  0.00075000  0.75060000  1.0 -0.0118759413
F  F80  1  0.96140000  0.95117000  0.76130000  1.0 0.0089204242
F  F81  1  0.00920000  0.00220000  0.84980000  1.0 -0.016520994
F  F82  1  0.91510000  0.15080000  0.49690000  1.0 -0.016520994
F  F83  1  0.06660000  0.19400000  0.50030000  1.0 -0.074456108
F  F84  1  0.03100000  0.14590000  0.40040000  1.0 0.0209029012
F  F85  1  0.90280000  0.01780000  0.81230000  1.0 0.0209029012
F  F86  1  0.85500000  0.96680000  0.72410000  1.0 0.0023236176
F  F87  1  0.03870000  0.96810000  0.82500000  1.0 -0.0118759413
F  F88  1  0.91390000  0.14230000  0.47480000  1.0 -0.0382948408
F  F89  1  0.03800000  0.19270000  0.51740000  1.0 -0.0588439938
F  F90  1  0.06800000  0.15790000  0.40830000  1.0 0.0023236176
F  F91  1  0.38610000  0.02080000  0.83750000  1.0 -0.0118759413
F  F92  1  0.47810000  0.01750000  0.72740000  1.0 0.0089204242
F  F93  1  0.52400000  0.97370000  0.83200000  1.0 0.0504928098
F  F94  1  0.46120000  0.18220000  0.45650000  1.0 -0.0459730649
F  F95  1  0.59000000  0.13490000  0.52680000  1.0 0.0089204242
F  F96  1  0.62800000  0.15930000  0.40640000  1.0 0.0282514182
