# DDEC6 charges by PACMAN v1.1 (https://github.com/mtap-research/PACMAN-charge/)
data_ZIWNOL_ASR_pacman
_symmetry_space_group_name_H-M   'P 1'
_cell_length_a   10.36120000
_cell_length_b   32.35120000
_cell_length_c   15.19450000
_cell_angle_alpha   90.00000000
_cell_angle_beta   105.79800000
_cell_angle_gamma   90.00000000
_symmetry_Int_Tables_number   1
_chemical_formula_structural   Cu3H14C32(O5F12)2
_chemical_formula_sum   'Cu12 H56 C128 O40 F96'
_cell_volume   4900.77346905
_cell_formula_units_Z   4
loop_
 _symmetry_equiv_pos_site_id
 _symmetry_equiv_pos_as_xyz
  1  'x, y, z'
loop_
 _atom_site_type_symbol
 _atom_site_label
 _atom_site_symmetry_multiplicity
 _atom_site_fract_x
 _atom_site_fract_y
 _atom_site_fract_z
 _atom_site_occupancy
 _atom_site_charge
Cu  Cu1  1  0.98788000  0.27752000  0.18325000  1.0 0.9183385016
Cu  Cu2  1  0.75722000  0.22024000  0.11566000  1.0 0.9614166187
Cu  Cu3  1  0.51718000  0.28449000  0.04625000  1.0 0.9614166187
Cu  Cu4  1  0.51212000  0.77752000  0.81675000  1.0 0.9183385016
Cu  Cu5  1  0.74278000  0.72024000  0.88434000  1.0 0.9614166187
Cu  Cu6  1  0.98282000  0.78449000  0.95375000  1.0 0.9614166187
Cu  Cu7  1  0.01212000  0.72248000  0.81675000  1.0 0.9183385016
Cu  Cu8  1  0.24278000  0.77976000  0.88434000  1.0 0.9614166187
Cu  Cu9  1  0.48282000  0.71551000  0.95375000  1.0 0.9614166187
Cu  Cu10  1  0.48788000  0.22248000  0.18325000  1.0 0.9183385016
Cu  Cu11  1  0.25722000  0.27976000  0.11566000  1.0 0.9614166187
Cu  Cu12  1  0.01718000  0.21551000  0.04625000  1.0 0.9614166187
H  H1  1  0.98540000  0.20310000  0.19560000  1.0 0.4009457811
H  H2  1  0.52300000  0.20700000  0.03050000  1.0 0.40961262
H  H3  1  0.92760000  0.31090000  0.42990000  1.0 0.0891609027
H  H4  1  0.62770000  0.23030000  0.52650000  1.0 0.0891609027
H  H5  1  0.66240000  0.21820000  0.38600000  1.0 0.110776067
H  H6  1  0.56880000  0.31430000  0.79270000  1.0 0.0891609027
H  H7  1  0.85830000  0.22870000  0.85340000  1.0 0.110776067
H  H8  1  0.88010000  0.23420000  0.70690000  1.0 0.0891609027
H  H9  1  0.00700000  0.41260000  0.20220000  1.0 0.0824631636
H  H10  1  0.58490000  0.45530000  0.04100000  1.0 0.1005991453
H  H11  1  0.62820000  0.38580000  0.06740000  1.0 0.110776067
H  H12  1  0.59580000  0.60600000  0.11110000  1.0 0.1005991453
H  H13  1  0.78610000  0.58230000  0.92080000  1.0 0.110776067
H  H14  1  0.82440000  0.51630000  0.97350000  1.0 0.0824631636
H  H15  1  0.51460000  0.70310000  0.80440000  1.0 0.4009457811
H  H16  1  0.97700000  0.70700000  0.96950000  1.0 0.40961262
H  H17  1  0.57240000  0.81090000  0.57010000  1.0 0.0891609027
H  H18  1  0.87230000  0.73030000  0.47350000  1.0 0.0891609027
H  H19  1  0.83760000  0.71820000  0.61400000  1.0 0.110776067
H  H20  1  0.93120000  0.81430000  0.20730000  1.0 0.0891609027
H  H21  1  0.64170000  0.72870000  0.14660000  1.0 0.110776067
H  H22  1  0.61990000  0.73420000  0.29310000  1.0 0.0891609027
H  H23  1  0.49300000  0.91260000  0.79780000  1.0 0.0824631636
H  H24  1  0.91510000  0.95530000  0.95900000  1.0 0.1005991453
H  H25  1  0.87180000  0.88580000  0.93260000  1.0 0.110776067
H  H26  1  0.90420000  0.10600000  0.88890000  1.0 0.1005991453
H  H27  1  0.71390000  0.08230000  0.07920000  1.0 0.110776067
H  H28  1  0.67560000  0.01630000  0.02650000  1.0 0.0824631636
H  H29  1  0.01460000  0.79690000  0.80440000  1.0 0.4009457811
H  H30  1  0.47700000  0.79300000  0.96950000  1.0 0.40961262
H  H31  1  0.07240000  0.68910000  0.57010000  1.0 0.0891609027
H  H32  1  0.37230000  0.76970000  0.47350000  1.0 0.0891609027
H  H33  1  0.33760000  0.78180000  0.61400000  1.0 0.110776067
H  H34  1  0.43120000  0.68570000  0.20730000  1.0 0.0891609027
H  H35  1  0.14170000  0.77130000  0.14660000  1.0 0.110776067
H  H36  1  0.11990000  0.76580000  0.29310000  1.0 0.0891609027
H  H37  1  0.99300000  0.58740000  0.79780000  1.0 0.0824631636
H  H38  1  0.41510000  0.54470000  0.95900000  1.0 0.1005991453
H  H39  1  0.37180000  0.61420000  0.93260000  1.0 0.110776067
H  H40  1  0.40420000  0.39400000  0.88890000  1.0 0.1005991453
H  H41  1  0.21390000  0.41770000  0.07920000  1.0 0.110776067
H  H42  1  0.17560000  0.48370000  0.02650000  1.0 0.0824631636
H  H43  1  0.48540000  0.29690000  0.19560000  1.0 0.4009457811
H  H44  1  0.02300000  0.29300000  0.03050000  1.0 0.40961262
H  H45  1  0.42760000  0.18910000  0.42990000  1.0 0.0891609027
H  H46  1  0.12770000  0.26970000  0.52650000  1.0 0.0891609027
H  H47  1  0.16240000  0.28180000  0.38600000  1.0 0.110776067
H  H48  1  0.06880000  0.18570000  0.79270000  1.0 0.0891609027
H  H49  1  0.35830000  0.27130000  0.85340000  1.0 0.110776067
H  H50  1  0.38010000  0.26580000  0.70690000  1.0 0.0891609027
H  H51  1  0.50700000  0.08740000  0.20220000  1.0 0.0824631636
H  H52  1  0.08490000  0.04470000  0.04100000  1.0 0.1005991453
H  H53  1  0.12820000  0.11420000  0.06740000  1.0 0.110776067
H  H54  1  0.09580000  0.89400000  0.11110000  1.0 0.1005991453
H  H55  1  0.28610000  0.91770000  0.92080000  1.0 0.110776067
H  H56  1  0.32440000  0.98370000  0.97350000  1.0 0.0824631636
C  C1  1  0.82260000  0.25750000  0.30020000  1.0 0.6039391996
C  C2  1  0.79520000  0.26450000  0.39110000  1.0 0.0093553614
C  C3  1  0.86710000  0.29460000  0.44960000  1.0 -0.1410410257
C  C4  1  0.85140000  0.30100000  0.53710000  1.0 -0.2692586912
C  C5  1  0.75870000  0.27650000  0.56560000  1.0 0.0027131883
C  C6  1  0.68930000  0.24650000  0.50760000  1.0 -0.1593587457
C  C7  1  0.70810000  0.23960000  0.42240000  1.0 -0.102856224
C  C8  1  0.94130000  0.33170000  0.59990000  1.0 0.3808714817
C  C9  1  0.74190000  0.27810000  0.66060000  1.0 -0.00328313
C  C10  1  0.64550000  0.30180000  0.68710000  1.0 -0.2816227434
C  C11  1  0.63210000  0.29820000  0.77530000  1.0 -0.1410410257
C  C12  1  0.71180000  0.27100000  0.83790000  1.0 0.0093553614
C  C13  1  0.80480000  0.24710000  0.81230000  1.0 -0.102856224
C  C14  1  0.81770000  0.25080000  0.72410000  1.0 -0.1518408491
C  C15  1  0.55090000  0.32920000  0.62200000  1.0 0.4009457811
C  C16  1  0.69180000  0.26650000  0.93180000  1.0 0.6146359683
C  C17  1  0.85370000  0.34650000  0.14910000  1.0 0.5756864787
C  C18  1  0.82240000  0.39190000  0.13740000  1.0 0.0093553614
C  C19  1  0.92160000  0.42110000  0.16970000  1.0 -0.1176298319
C  C20  1  0.89520000  0.46310000  0.15440000  1.0 -0.2184732577
C  C21  1  0.76800000  0.47620000  0.10570000  1.0 0.01666183
C  C22  1  0.67030000  0.44680000  0.07380000  1.0 -0.134912411
C  C23  1  0.69610000  0.40500000  0.08930000  1.0 -0.0813606365
C  C24  1  0.00650000  0.49270000  0.19230000  1.0 0.3723673166
C  C25  1  0.73980000  0.52060000  0.07790000  1.0 0.01666183
C  C26  1  0.67040000  0.54800000  0.11910000  1.0 -0.2569080947
C  C27  1  0.64440000  0.58800000  0.08450000  1.0 -0.1593587457
C  C28  1  0.68880000  0.60170000  0.01190000  1.0 0.0093553614
C  C29  1  0.75660000  0.57400000  0.97060000  1.0 -0.102856224
C  C30  1  0.78010000  0.53450000  0.00270000  1.0 -0.1939674078
C  C31  1  0.61650000  0.53510000  0.19660000  1.0 0.3808714817
C  C32  1  0.66180000  0.64499000  0.97710000  1.0 0.5909726711
C  C33  1  0.67740000  0.75750000  0.69980000  1.0 0.6039391996
C  C34  1  0.70480000  0.76450000  0.60890000  1.0 0.0093553614
C  C35  1  0.63290000  0.79460000  0.55040000  1.0 -0.1410410257
C  C36  1  0.64860000  0.80100000  0.46290000  1.0 -0.2692586912
C  C37  1  0.74130000  0.77650000  0.43440000  1.0 0.0027131883
C  C38  1  0.81070000  0.74650000  0.49240000  1.0 -0.1593587457
C  C39  1  0.79190000  0.73960000  0.57760000  1.0 -0.102856224
C  C40  1  0.55870000  0.83170000  0.40010000  1.0 0.3808714817
C  C41  1  0.75810000  0.77810000  0.33940000  1.0 -0.00328313
C  C42  1  0.85450000  0.80180000  0.31290000  1.0 -0.2816227434
C  C43  1  0.86790000  0.79820000  0.22470000  1.0 -0.1410410257
C  C44  1  0.78820000  0.77100000  0.16210000  1.0 0.0093553614
C  C45  1  0.69520000  0.74710000  0.18770000  1.0 -0.102856224
C  C46  1  0.68230000  0.75080000  0.27590000  1.0 -0.1518408491
C  C47  1  0.94910000  0.82920000  0.37800000  1.0 0.3938142003
C  C48  1  0.80820000  0.76650000  0.06820000  1.0 0.6146359683
C  C49  1  0.64630000  0.84650000  0.85090000  1.0 0.5756864787
C  C50  1  0.67760000  0.89190000  0.86260000  1.0 0.0093553614
C  C51  1  0.57840000  0.92110000  0.83030000  1.0 -0.1176298319
C  C52  1  0.60480000  0.96310000  0.84560000  1.0 -0.2184732577
C  C53  1  0.73200000  0.97620000  0.89430000  1.0 0.01666183
C  C54  1  0.82970000  0.94680000  0.92620000  1.0 -0.134912411
C  C55  1  0.80390000  0.90500000  0.91070000  1.0 -0.0813606365
C  C56  1  0.49350000  0.99270000  0.80770000  1.0 0.3723673166
C  C57  1  0.76020000  0.02060000  0.92210000  1.0 0.01666183
C  C58  1  0.82960000  0.04800000  0.88090000  1.0 -0.2569080947
C  C59  1  0.85560000  0.08800000  0.91550000  1.0 -0.1593587457
C  C60  1  0.81120000  0.10170000  0.98810000  1.0 0.0093553614
C  C61  1  0.74340000  0.07400000  0.02940000  1.0 -0.102856224
C  C62  1  0.71990000  0.03450000  0.99730000  1.0 -0.1939674078
C  C63  1  0.88350000  0.03510000  0.80340000  1.0 0.3808714817
C  C64  1  0.83820000  0.14499000  0.02290000  1.0 0.5909726711
C  C65  1  0.17740000  0.74250000  0.69980000  1.0 0.6039391996
C  C66  1  0.20480000  0.73550000  0.60890000  1.0 0.0093553614
C  C67  1  0.13290000  0.70540000  0.55040000  1.0 -0.1410410257
C  C68  1  0.14860000  0.69900000  0.46290000  1.0 -0.2692586912
C  C69  1  0.24130000  0.72350000  0.43440000  1.0 0.0027131883
C  C70  1  0.31070000  0.75350000  0.49240000  1.0 -0.1593587457
C  C71  1  0.29190000  0.76040000  0.57760000  1.0 -0.102856224
C  C72  1  0.05870000  0.66830000  0.40010000  1.0 0.3808714817
C  C73  1  0.25810000  0.72190000  0.33940000  1.0 -0.00328313
C  C74  1  0.35450000  0.69820000  0.31290000  1.0 -0.2816227434
C  C75  1  0.36790000  0.70180000  0.22470000  1.0 -0.1410410257
C  C76  1  0.28820000  0.72900000  0.16210000  1.0 0.0093553614
C  C77  1  0.19520000  0.75290000  0.18770000  1.0 -0.102856224
C  C78  1  0.18230000  0.74920000  0.27590000  1.0 -0.1518408491
C  C79  1  0.44910000  0.67080000  0.37800000  1.0 0.4009457811
C  C80  1  0.30820000  0.73350000  0.06820000  1.0 0.6146359683
C  C81  1  0.14630000  0.65350000  0.85090000  1.0 0.5756864787
C  C82  1  0.17760000  0.60810000  0.86260000  1.0 0.0093553614
C  C83  1  0.07840000  0.57890000  0.83030000  1.0 -0.1176298319
C  C84  1  0.10480000  0.53690000  0.84560000  1.0 -0.2184732577
C  C85  1  0.23200000  0.52380000  0.89430000  1.0 0.01666183
C  C86  1  0.32970000  0.55320000  0.92620000  1.0 -0.134912411
C  C87  1  0.30390000  0.59500000  0.91070000  1.0 -0.0813606365
C  C88  1  0.99350000  0.50730000  0.80770000  1.0 0.3723673166
C  C89  1  0.26020000  0.47940000  0.92210000  1.0 0.01666183
C  C90  1  0.32960000  0.45200000  0.88090000  1.0 -0.2569080947
C  C91  1  0.35560000  0.41200000  0.91550000  1.0 -0.1593587457
C  C92  1  0.31120000  0.39830000  0.98810000  1.0 0.0093553614
C  C93  1  0.24340000  0.42600000  0.02940000  1.0 -0.102856224
C  C94  1  0.21990000  0.46550000  0.99730000  1.0 -0.1939674078
C  C95  1  0.38350000  0.46490000  0.80340000  1.0 0.3808714817
C  C96  1  0.33820000  0.35501000  0.02290000  1.0 0.5909726711
C  C97  1  0.32260000  0.24250000  0.30020000  1.0 0.6039391996
C  C98  1  0.29520000  0.23550000  0.39110000  1.0 0.0093553614
C  C99  1  0.36710000  0.20540000  0.44960000  1.0 -0.1410410257
C  C100  1  0.35140000  0.19900000  0.53710000  1.0 -0.2692586912
C  C101  1  0.25870000  0.22350000  0.56560000  1.0 0.0027131883
C  C102  1  0.18930000  0.25350000  0.50760000  1.0 -0.1593587457
C  C103  1  0.20810000  0.26040000  0.42240000  1.0 -0.102856224
C  C104  1  0.44130000  0.16830000  0.59990000  1.0 0.3723673166
C  C105  1  0.24190000  0.22190000  0.66060000  1.0 -0.00328313
C  C106  1  0.14550000  0.19820000  0.68710000  1.0 -0.2816227434
C  C107  1  0.13210000  0.20180000  0.77530000  1.0 -0.1410410257
C  C108  1  0.21180000  0.22900000  0.83790000  1.0 0.0093553614
C  C109  1  0.30480000  0.25290000  0.81230000  1.0 -0.102856224
C  C110  1  0.31770000  0.24920000  0.72410000  1.0 -0.1518408491
C  C111  1  0.05090000  0.17080000  0.62200000  1.0 0.4009457811
C  C112  1  0.19180000  0.23350000  0.93180000  1.0 0.6146359683
C  C113  1  0.35370000  0.15350000  0.14910000  1.0 0.5756864787
C  C114  1  0.32240000  0.10810000  0.13740000  1.0 0.0093553614
C  C115  1  0.42160000  0.07890000  0.16970000  1.0 -0.1176298319
C  C116  1  0.39520000  0.03690000  0.15440000  1.0 -0.2184732577
C  C117  1  0.26800000  0.02380000  0.10570000  1.0 0.01666183
C  C118  1  0.17030000  0.05320000  0.07380000  1.0 -0.134912411
C  C119  1  0.19610000  0.09500000  0.08930000  1.0 -0.0813606365
C  C120  1  0.50650000  0.00730000  0.19230000  1.0 0.3723673166
C  C121  1  0.23980000  0.97940000  0.07790000  1.0 0.01666183
C  C122  1  0.17040000  0.95200000  0.11910000  1.0 -0.2569080947
C  C123  1  0.14440000  0.91200000  0.08450000  1.0 -0.1593587457
C  C124  1  0.18880000  0.89830000  0.01190000  1.0 0.0093553614
C  C125  1  0.25660000  0.92600000  0.97060000  1.0 -0.102856224
C  C126  1  0.28010000  0.96550000  0.00270000  1.0 -0.1939674078
C  C127  1  0.11650000  0.96490000  0.19660000  1.0 0.3808714817
C  C128  1  0.16180000  0.85501000  0.97710000  1.0 0.5909726711
O  O1  1  0.92630000  0.27520000  0.29180000  1.0 -0.5112010001
O  O2  1  0.74130000  0.23539000  0.24160000  1.0 -0.5975905119
O  O3  1  0.58900000  0.28477000  0.94300000  1.0 -0.5219755976
O  O4  1  0.77500000  0.24590000  0.99140000  1.0 -0.6232533215
O  O5  1  0.97850000  0.33722000  0.18010000  1.0 -0.5326334147
O  O6  1  0.76060000  0.32065000  0.12860000  1.0 -0.5975905119
O  O7  1  0.55980000  0.66179000  0.99130000  1.0 -0.5219755976
O  O8  1  0.74270000  0.66007000  0.93640000  1.0 -0.5591976403
O  O9  1  0.95140000  0.21937000  0.15450000  1.0 -0.7918027399
O  O10  1  0.56600000  0.22613000  0.07980000  1.0 -0.8213809638
O  O11  1  0.57370000  0.77520000  0.70820000  1.0 -0.5112010001
O  O12  1  0.75870000  0.73539000  0.75840000  1.0 -0.5975905119
O  O13  1  0.91100000  0.78477000  0.05700000  1.0 -0.5219755976
O  O14  1  0.72500000  0.74590000  0.00860000  1.0 -0.6232533215
O  O15  1  0.52150000  0.83722000  0.81990000  1.0 -0.5326334147
O  O16  1  0.73940000  0.82065000  0.87140000  1.0 -0.5975905119
O  O17  1  0.94020000  0.16179000  0.00870000  1.0 -0.5219755976
O  O18  1  0.75730000  0.16007000  0.06360000  1.0 -0.5591976403
O  O19  1  0.54860000  0.71937000  0.84550000  1.0 -0.7918027399
O  O20  1  0.93400000  0.72613000  0.92020000  1.0 -0.8213809638
O  O21  1  0.07370000  0.72480000  0.70820000  1.0 -0.5112010001
O  O22  1  0.25870000  0.76461000  0.75840000  1.0 -0.5975905119
O  O23  1  0.41100000  0.71523000  0.05700000  1.0 -0.5219755976
O  O24  1  0.22500000  0.75410000  0.00860000  1.0 -0.6232533215
O  O25  1  0.02150000  0.66278000  0.81990000  1.0 -0.5326334147
O  O26  1  0.23940000  0.67935000  0.87140000  1.0 -0.5975905119
O  O27  1  0.44020000  0.33821000  0.00870000  1.0 -0.5219755976
O  O28  1  0.25730000  0.33993000  0.06360000  1.0 -0.5591976403
O  O29  1  0.04860000  0.78063000  0.84550000  1.0 -0.7918027399
O  O30  1  0.43400000  0.77387000  0.92020000  1.0 -0.8213809638
O  O31  1  0.42630000  0.22480000  0.29180000  1.0 -0.5112010001
O  O32  1  0.24130000  0.26461000  0.24160000  1.0 -0.5975905119
O  O33  1  0.08900000  0.21523000  0.94300000  1.0 -0.5219755976
O  O34  1  0.27500000  0.25410000  0.99140000  1.0 -0.6232533215
O  O35  1  0.47850000  0.16278000  0.18010000  1.0 -0.5326334147
O  O36  1  0.26060000  0.17935000  0.12860000  1.0 -0.5975905119
O  O37  1  0.05980000  0.83821000  0.99130000  1.0 -0.5219755976
O  O38  1  0.24270000  0.83993000  0.93640000  1.0 -0.5591976403
O  O39  1  0.45140000  0.28063000  0.15450000  1.0 -0.7918027399
O  O40  1  0.06600000  0.27387000  0.07980000  1.0 -0.8213809638
F  F1  1  0.87560000  0.35800000  0.63780000  1.0 -0.0296028759
F  F2  1  0.02860000  0.31170000  0.66960000  1.0 -0.0185939454
F  F3  1  0.01820000  0.35240000  0.55920000  1.0 0.0093553614
F  F4  1  0.61130000  0.35580000  0.57930000  1.0 0.0093553614
F  F5  1  0.46960000  0.30780000  0.55280000  1.0 -0.0101080251
F  F6  1  0.47230000  0.35100000  0.65900000  1.0 -0.0101080251
F  F7  1  0.11440000  0.47520000  0.24620000  1.0 0.0294701442
F  F8  1  0.97330000  0.52435000  0.23680000  1.0 -0.0410795251
F  F9  1  0.04790000  0.51090000  0.12370000  1.0 -0.0296028759
F  F10  1  0.51060000  0.50940000  0.16820000  1.0 -0.0185939454
F  F11  1  0.57630000  0.56679000  0.23820000  1.0 -0.0185939454
F  F12  1  0.70770000  0.51400000  0.26070000  1.0 0.0027131883
F  F13  1  0.97100000  0.53180000  0.17600000  1.0 -0.0101080251
F  F14  1  0.11300000  0.48620000  0.16200000  1.0 0.0027131883
F  F15  1  0.05200000  0.48920000  0.28390000  1.0 0.0384031219
F  F16  1  0.48320000  0.53700000  0.17500000  1.0 -0.0185939454
F  F17  1  0.65000000  0.49660000  0.22400000  1.0 0.0294701442
F  F18  1  0.66200000  0.55920000  0.27000000  1.0 -0.0185939454
F  F19  1  0.06960000  0.32390000  0.61100000  1.0 -0.0101080251
F  F20  1  0.91800000  0.33370000  0.68110000  1.0 0.0093553614
F  F21  1  0.91900000  0.37000000  0.56370000  1.0 -0.0296028759
F  F22  1  0.57600000  0.36930000  0.64190000  1.0 -0.0101080251
F  F23  1  0.42420000  0.32400000  0.62420000  1.0 -0.0101080251
F  F24  1  0.55100000  0.32490000  0.53590000  1.0 0.0384031219
F  F25  1  0.62440000  0.85800000  0.36220000  1.0 -0.0296028759
F  F26  1  0.47140000  0.81170000  0.33040000  1.0 -0.0185939454
F  F27  1  0.48180000  0.85240000  0.44080000  1.0 0.0093553614
F  F28  1  0.88870000  0.85580000  0.42070000  1.0 0.0093553614
F  F29  1  0.03040000  0.80780000  0.44720000  1.0 -0.00328313
F  F30  1  0.02770000  0.85100000  0.34100000  1.0 -0.0101080251
F  F31  1  0.38560000  0.97520000  0.75380000  1.0 0.0294701442
F  F32  1  0.52670000  0.02435000  0.76320000  1.0 -0.0410795251
F  F33  1  0.45210000  0.01090000  0.87630000  1.0 -0.0296028759
F  F34  1  0.98940000  0.00940000  0.83180000  1.0 -0.0185939454
F  F35  1  0.92370000  0.06679000  0.76180000  1.0 -0.0185939454
F  F36  1  0.79230000  0.01400000  0.73930000  1.0 0.0027131883
F  F37  1  0.52900000  0.03180000  0.82400000  1.0 -0.0101080251
F  F38  1  0.38700000  0.98620000  0.83800000  1.0 0.0027131883
F  F39  1  0.44800000  0.98920000  0.71610000  1.0 0.0384031219
F  F40  1  0.01680000  0.03700000  0.82500000  1.0 -0.0185939454
F  F41  1  0.85000000  0.99660000  0.77600000  1.0 0.0294701442
F  F42  1  0.83800000  0.05920000  0.73000000  1.0 -0.0185939454
F  F43  1  0.43040000  0.82390000  0.38900000  1.0 -0.0101080251
F  F44  1  0.58200000  0.83370000  0.31890000  1.0 0.0093553614
F  F45  1  0.58100000  0.87000000  0.43630000  1.0 -0.0296028759
F  F46  1  0.92400000  0.86930000  0.35810000  1.0 -0.0185939454
F  F47  1  0.07580000  0.82400000  0.37580000  1.0 -0.0101080251
F  F48  1  0.94900000  0.82490000  0.46410000  1.0 0.0384031219
F  F49  1  0.12440000  0.64200000  0.36220000  1.0 -0.0296028759
F  F50  1  0.97140000  0.68830000  0.33040000  1.0 -0.0185939454
F  F51  1  0.98180000  0.64760000  0.44080000  1.0 0.0093553614
F  F52  1  0.38870000  0.64420000  0.42070000  1.0 0.0093553614
F  F53  1  0.53040000  0.69220000  0.44720000  1.0 -0.0101080251
F  F54  1  0.52770000  0.64900000  0.34100000  1.0 -0.0101080251
F  F55  1  0.88560000  0.52480000  0.75380000  1.0 0.0294701442
F  F56  1  0.02670000  0.47565000  0.76320000  1.0 -0.0410795251
F  F57  1  0.95210000  0.48910000  0.87630000  1.0 -0.0296028759
F  F58  1  0.48940000  0.49060000  0.83180000  1.0 -0.0185939454
F  F59  1  0.42370000  0.43321000  0.76180000  1.0 -0.0185939454
F  F60  1  0.29230000  0.48600000  0.73930000  1.0 0.0027131883
F  F61  1  0.02900000  0.46820000  0.82400000  1.0 -0.0101080251
F  F62  1  0.88700000  0.51380000  0.83800000  1.0 0.0027131883
F  F63  1  0.94800000  0.51080000  0.71610000  1.0 0.0384031219
F  F64  1  0.51680000  0.46300000  0.82500000  1.0 -0.0185939454
F  F65  1  0.35000000  0.50340000  0.77600000  1.0 0.0384031219
F  F66  1  0.33800000  0.44080000  0.73000000  1.0 -0.0185939454
F  F67  1  0.93040000  0.67610000  0.38900000  1.0 -0.0101080251
F  F68  1  0.08200000  0.66630000  0.31890000  1.0 0.0093553614
F  F69  1  0.08100000  0.63000000  0.43630000  1.0 -0.0296028759
F  F70  1  0.42400000  0.63070000  0.35810000  1.0 -0.0101080251
F  F71  1  0.57580000  0.67600000  0.37580000  1.0 -0.0101080251
F  F72  1  0.44900000  0.67510000  0.46410000  1.0 0.0384031219
F  F73  1  0.37560000  0.14200000  0.63780000  1.0 -0.0296028759
F  F74  1  0.52860000  0.18830000  0.66960000  1.0 -0.0185939454
F  F75  1  0.51820000  0.14760000  0.55920000  1.0 0.0093553614
F  F76  1  0.11130000  0.14420000  0.57930000  1.0 0.0093553614
F  F77  1  0.96960000  0.19220000  0.55280000  1.0 -0.0101080251
F  F78  1  0.97230000  0.14900000  0.65900000  1.0 -0.0101080251
F  F79  1  0.61440000  0.02480000  0.24620000  1.0 0.0294701442
F  F80  1  0.47330000  0.97565000  0.23680000  1.0 -0.0410795251
F  F81  1  0.54790000  0.98910000  0.12370000  1.0 -0.0296028759
F  F82  1  0.01060000  0.99060000  0.16820000  1.0 -0.0185939454
F  F83  1  0.07630000  0.93321000  0.23820000  1.0 -0.0185939454
F  F84  1  0.20770000  0.98600000  0.26070000  1.0 0.0027131883
F  F85  1  0.47100000  0.96820000  0.17600000  1.0 -0.0101080251
F  F86  1  0.61300000  0.01380000  0.16200000  1.0 0.0027131883
F  F87  1  0.55200000  0.01080000  0.28390000  1.0 0.0384031219
F  F88  1  0.98320000  0.96300000  0.17500000  1.0 -0.0185939454
F  F89  1  0.15000000  0.00340000  0.22400000  1.0 0.0384031219
F  F90  1  0.16200000  0.94080000  0.27000000  1.0 -0.0185939454
F  F91  1  0.56960000  0.17610000  0.61100000  1.0 -0.0101080251
F  F92  1  0.41800000  0.16630000  0.68110000  1.0 0.0093553614
F  F93  1  0.41900000  0.13000000  0.56370000  1.0 -0.0296028759
F  F94  1  0.07600000  0.13070000  0.64190000  1.0 -0.0101080251
F  F95  1  0.92420000  0.17600000  0.62420000  1.0 -0.0101080251
F  F96  1  0.05100000  0.17510000  0.53590000  1.0 0.0384031219
