# DDEC6 charges by PACMAN v1.1 (https://github.com/mtap-research/PACMAN-charge/)
data_ZIWROP_ASR_pacman
_symmetry_space_group_name_H-M   'P 1'
_cell_length_a   12.22650000
_cell_length_b   13.85500000
_cell_length_c   14.96270000
_cell_angle_alpha   73.45800000
_cell_angle_beta   71.53700000
_cell_angle_gamma   78.02600000
_symmetry_Int_Tables_number   1
_chemical_formula_structural   U3ZnP6H24C18O19
_chemical_formula_sum   'U6 Zn2 P12 H48 C36 O38'
_cell_volume   2285.42676591
_cell_formula_units_Z   2
loop_
 _symmetry_equiv_pos_site_id
 _symmetry_equiv_pos_as_xyz
  1  'x, y, z'
loop_
 _atom_site_type_symbol
 _atom_site_label
 _atom_site_symmetry_multiplicity
 _atom_site_fract_x
 _atom_site_fract_y
 _atom_site_fract_z
 _atom_site_occupancy
 _atom_site_charge
U  U1  1  0.08682000  0.85498000  0.51289000  1.0 1.994980217
U  U2  1  0.66609000  0.42562000  0.94372000  1.0 2.1390971749
U  U3  1  0.54253000  0.90083000  0.75718000  1.0 2.1390971749
U  U4  1  0.91318000  0.14502000  0.48711000  1.0 2.002608181
U  U5  1  0.33391000  0.57438000  0.05628000  1.0 2.1390971749
U  U6  1  0.45747000  0.09917000  0.24282000  1.0 2.1538282642
Zn  Zn1  1  0.04240000  0.50370000  0.41790000  1.0 0.7687186013
Zn  Zn2  1  0.95760000  0.49630000  0.58210000  1.0 0.7687186013
P  P1  1  0.55570000  0.61580000  0.81100000  1.0 1.3411675105
P  P2  1  0.80880000  0.39930000  0.50320000  1.0 1.2909360538
P  P3  1  0.38860000  0.84700000  0.37910000  1.0 1.3139644871
P  P4  1  0.08770000  0.69550000  0.21140000  1.0 1.3162116617
P  P5  1  0.74710000  0.18040000  0.09220000  1.0 1.3310098658
P  P6  1  0.81630000  0.88000000  0.56250000  1.0 1.3411675105
P  P7  1  0.44430000  0.38420000  0.18900000  1.0 1.3411675105
P  P8  1  0.19120000  0.60070000  0.49680000  1.0 1.2909360538
P  P9  1  0.61140000  0.15300000  0.62090000  1.0 1.3162116617
P  P10  1  0.91230000  0.30450000  0.78860000  1.0 1.3162116617
P  P11  1  0.25290000  0.81960000  0.90780000  1.0 1.3310098658
P  P12  1  0.18370000  0.12000000  0.43750000  1.0 1.3411675105
H  H1  1  0.37440000  0.07190000  0.86590000  1.0 0.4204260716
H  H2  1  0.38530000  0.05520000  0.76350000  1.0 0.3067081431
H  H3  1  0.71030000  0.31850000  0.61770000  1.0 0.2901073048
H  H4  1  0.33770000  0.72880000  0.36100000  1.0 0.2985588322
H  H5  1  0.18470000  0.80320000  0.14830000  1.0 0.2901073048
H  H6  1  0.81160000  0.15750000  0.96100000  1.0 0.2901073048
H  H7  1  0.58100000  0.47450000  0.64350000  1.0 0.1304021454
H  H8  1  0.63750000  0.66060000  0.37730000  1.0 0.1304021454
H  H9  1  0.44590000  0.76600000  0.60800000  1.0 0.1178158829
H  H10  1  0.43370000  0.53230000  0.77940000  1.0 0.1519713709
H  H11  1  0.38590000  0.64800000  0.76680000  1.0 0.1519713709
H  H12  1  0.71330000  0.48940000  0.38880000  1.0 0.1597423384
H  H13  1  0.63300000  0.41590000  0.47090000  1.0 0.1413197122
H  H14  1  0.58360000  0.84080000  0.36010000  1.0 0.1413197122
H  H15  1  0.51070000  0.88390000  0.45050000  1.0 0.1413197122
H  H16  1  0.94850000  0.96350000  0.11120000  1.0 0.1178158829
H  H17  1  0.75790000  0.06580000  0.34520000  1.0 0.1073597232
H  H18  1  0.84420000  0.76650000  0.36890000  1.0 0.1304021454
H  H19  1  0.98510000  0.79500000  0.11060000  1.0 0.1413197122
H  H20  1  0.90760000  0.71980000  0.19360000  1.0 0.1597423384
H  H21  1  0.93050000  0.15120000  0.11340000  1.0 0.1597423384
H  H22  1  0.83950000  0.18750000  0.20190000  1.0 0.1597423384
H  H23  1  0.69320000  0.83640000  0.49760000  1.0 0.1519713709
H  H24  1  0.67210000  0.95350000  0.48890000  1.0 0.1304021454
H  H25  1  0.62560000  0.92810000  0.13410000  1.0 0.4204260716
H  H26  1  0.61470000  0.94480000  0.23650000  1.0 0.3067081431
H  H27  1  0.28970000  0.68150000  0.38230000  1.0 0.2901073048
H  H28  1  0.66230000  0.27120000  0.63900000  1.0 0.2985588322
H  H29  1  0.81530000  0.19680000  0.85170000  1.0 0.2985588322
H  H30  1  0.18840000  0.84250000  0.03900000  1.0 0.2901073048
H  H31  1  0.41900000  0.52550000  0.35650000  1.0 0.1304021454
H  H32  1  0.36250000  0.33940000  0.62270000  1.0 0.1304021454
H  H33  1  0.55410000  0.23400000  0.39200000  1.0 0.1178158829
H  H34  1  0.56630000  0.46770000  0.22060000  1.0 0.1519713709
H  H35  1  0.61410000  0.35200000  0.23320000  1.0 0.1519713709
H  H36  1  0.28670000  0.51060000  0.61120000  1.0 0.1597423384
H  H37  1  0.36700000  0.58410000  0.52910000  1.0 0.1413197122
H  H38  1  0.41640000  0.15920000  0.63990000  1.0 0.1413197122
H  H39  1  0.48930000  0.11610000  0.54950000  1.0 0.1413197122
H  H40  1  0.05150000  0.03650000  0.88880000  1.0 0.1178158829
H  H41  1  0.24210000  0.93420000  0.65480000  1.0 0.1073597232
H  H42  1  0.15580000  0.23350000  0.63110000  1.0 0.1304021454
H  H43  1  0.01490000  0.20500000  0.88940000  1.0 0.1304021454
H  H44  1  0.09240000  0.28020000  0.80640000  1.0 0.1597423384
H  H45  1  0.06950000  0.84880000  0.88660000  1.0 0.1597423384
H  H46  1  0.16050000  0.81250000  0.79810000  1.0 0.1597423384
H  H47  1  0.30680000  0.16360000  0.50240000  1.0 0.1519713709
H  H48  1  0.32790000  0.04650000  0.51110000  1.0 0.1304021454
C  C1  1  0.50560000  0.61670000  0.64340000  1.0 0.1736673523
C  C2  1  0.56960000  0.53840000  0.60320000  1.0 -0.2480837992
C  C3  1  0.61900000  0.55240000  0.50150000  1.0 0.1736673523
C  C4  1  0.60310000  0.64930000  0.44380000  1.0 -0.2480837992
C  C5  1  0.53770000  0.72950000  0.48220000  1.0 0.1597423384
C  C6  1  0.48980000  0.71230000  0.58160000  1.0 -0.2591771474
C  C7  1  0.45560000  0.60020000  0.75280000  1.0 -0.5818569353
C  C8  1  0.68590000  0.46460000  0.45860000  1.0 -0.5930141797
C  C9  1  0.51720000  0.83170000  0.41680000  1.0 -0.6198636454
C  C10  1  0.90750000  0.85120000  0.23320000  1.0 0.1788762967
C  C11  1  0.90940000  0.95180000  0.17680000  1.0 -0.2705022236
C  C12  1  0.85410000  0.03380000  0.21740000  1.0 0.1736673523
C  C13  1  0.79670000  0.01230000  0.31660000  1.0 -0.2892242661
C  C14  1  0.79580000  0.91350000  0.37420000  1.0 0.1519713709
C  C15  1  0.84830000  0.83280000  0.33190000  1.0 -0.2591771474
C  C16  1  0.96430000  0.76550000  0.17990000  1.0 -0.6198636454
C  C17  1  0.85420000  0.14300000  0.15860000  1.0 -0.5930141797
C  C18  1  0.73200000  0.89630000  0.47990000  1.0 -0.612457334
C  C19  1  0.49440000  0.38330000  0.35660000  1.0 0.1736673523
C  C20  1  0.43040000  0.46160000  0.39680000  1.0 -0.2480837992
C  C21  1  0.38100000  0.44760000  0.49850000  1.0 0.1736673523
C  C22  1  0.39690000  0.35070000  0.55620000  1.0 -0.2445108285
C  C23  1  0.46230000  0.27050000  0.51780000  1.0 0.1597423384
C  C24  1  0.51020000  0.28770000  0.41840000  1.0 -0.2591771474
C  C25  1  0.54440000  0.39980000  0.24720000  1.0 -0.5818569353
C  C26  1  0.31410000  0.53540000  0.54140000  1.0 -0.5930141797
C  C27  1  0.48280000  0.16830000  0.58320000  1.0 -0.6198636454
C  C28  1  0.09250000  0.14880000  0.76680000  1.0 0.1788762967
C  C29  1  0.09060000  0.04820000  0.82320000  1.0 -0.2705022236
C  C30  1  0.14590000  0.96620000  0.78260000  1.0 0.1736673523
C  C31  1  0.20330000  0.98770000  0.68340000  1.0 -0.2892242661
C  C32  1  0.20420000  0.08650000  0.62580000  1.0 0.1519713709
C  C33  1  0.15170000  0.16720000  0.66810000  1.0 -0.2591771474
C  C34  1  0.03570000  0.23450000  0.82010000  1.0 -0.6198636454
C  C35  1  0.14580000  0.85700000  0.84140000  1.0 -0.5930141797
C  C36  1  0.26800000  0.10370000  0.52010000  1.0 -0.612457334
O  O1  1  0.50210000  0.57590000  0.92150000  1.0 -1.0290384879
O  O2  1  0.66870000  0.54200000  0.79020000  1.0 -0.8258265645
O  O3  1  0.39250000  0.04090000  0.82070000  1.0 -0.761612772
O  O4  1  0.57760000  0.72420000  0.77980000  1.0 -0.8258265645
O  O5  1  0.89010000  0.47390000  0.49050000  1.0 -0.748685806
O  O6  1  0.86670000  0.31930000  0.44460000  1.0 -0.8485336294
O  O7  1  0.76250000  0.35120000  0.61010000  1.0 -0.6293361177
O  O8  1  0.38680000  0.94350000  0.29880000  1.0 -0.8826082935
O  O9  1  0.28540000  0.84700000  0.46910000  1.0 -0.870513766
O  O10  1  0.39740000  0.75570000  0.33550000  1.0 -0.5996304443
O  O11  1  0.16670000  0.76890000  0.20410000  1.0 -0.6198636454
O  O12  1  0.04490000  0.64170000  0.31620000  1.0 -0.7291541984
O  O13  1  0.14770000  0.62100000  0.14910000  1.0 -0.870513766
O  O14  1  0.63390000  0.15460000  0.16130000  1.0 -0.8485336294
O  O15  1  0.78810000  0.11950000  0.01420000  1.0 -0.612457334
O  O16  1  0.74260000  0.29440000  0.05130000  1.0 -0.8826082935
O  O17  1  0.73500000  0.87270000  0.66340000  1.0 -0.8485336294
O  O18  1  0.89270000  0.96730000  0.53060000  1.0 -0.9806559076
O  O19  1  0.90600000  0.78520000  0.55750000  1.0 -0.8119910052
O  O20  1  0.49790000  0.42410000  0.07850000  1.0 -1.0290384879
O  O21  1  0.33130000  0.45800000  0.20980000  1.0 -0.8258265645
O  O22  1  0.60750000  0.95910000  0.17930000  1.0 -0.761612772
O  O23  1  0.42240000  0.27580000  0.22020000  1.0 -0.8249382963
O  O24  1  0.10990000  0.52610000  0.50950000  1.0 -0.748685806
O  O25  1  0.13330000  0.68070000  0.55540000  1.0 -0.8485336294
O  O26  1  0.23750000  0.64880000  0.38990000  1.0 -0.6293361177
O  O27  1  0.61320000  0.05650000  0.70120000  1.0 -0.8826082935
O  O28  1  0.71460000  0.15300000  0.53090000  1.0 -0.870513766
O  O29  1  0.60260000  0.24430000  0.66450000  1.0 -0.5996304443
O  O30  1  0.83330000  0.23110000  0.79590000  1.0 -0.6198636454
O  O31  1  0.95510000  0.35830000  0.68380000  1.0 -0.7291541984
O  O32  1  0.85230000  0.37900000  0.85090000  1.0 -0.870513766
O  O33  1  0.36610000  0.84540000  0.83870000  1.0 -0.8485336294
O  O34  1  0.21190000  0.88050000  0.98580000  1.0 -0.6198636454
O  O35  1  0.25740000  0.70560000  0.94870000  1.0 -0.8826082935
O  O36  1  0.26500000  0.12730000  0.33660000  1.0 -0.8446837654
O  O37  1  0.10730000  0.03270000  0.46940000  1.0 -0.9806559076
O  O38  1  0.09400000  0.21480000  0.44250000  1.0 -0.8119910052
