# DDEC6 charges by PACMAN v1.1 (https://github.com/mtap-research/PACMAN-charge/)
data_ZIZTOT_ASR_pacman
_symmetry_space_group_name_H-M   'P 1'
_cell_length_a   8.79820000
_cell_length_b   11.88760000
_cell_length_c   12.64460000
_cell_angle_alpha   95.21900000
_cell_angle_beta   106.75200000
_cell_angle_gamma   96.98000000
_symmetry_Int_Tables_number   1
_chemical_formula_structural   UP2H8(CO)6
_chemical_formula_sum   'U3 P6 H24 C18 O18'
_cell_volume   1245.88967019
_cell_formula_units_Z   3
loop_
 _symmetry_equiv_pos_site_id
 _symmetry_equiv_pos_as_xyz
  1  'x, y, z'
loop_
 _atom_site_type_symbol
 _atom_site_label
 _atom_site_symmetry_multiplicity
 _atom_site_fract_x
 _atom_site_fract_y
 _atom_site_fract_z
 _atom_site_occupancy
 _atom_site_charge
U  U1  1  0.50000000  0.50000000  0.50000000  1.0 2.0147961723
U  U2  1  0.15561000  0.09440000  0.24609000  1.0 2.086553608
U  U3  1  0.84439000  0.90560000  0.75391000  1.0 2.086553608
P  P1  1  0.32400000  0.21704000  0.54220000  1.0 1.3648461448
P  P2  1  0.67600000  0.78296000  0.45780000  1.0 1.3648461448
P  P3  1  0.84662000  0.58652000  0.73305000  1.0 1.3455922352
P  P4  1  0.15338000  0.41348000  0.26695000  1.0 1.3455922352
P  P5  1  0.97965000  0.17263000  0.96548000  1.0 1.3757278667
P  P6  1  0.02035000  0.82737000  0.03452000  1.0 1.3757278667
H  H1  1  0.07010000  0.42550000  0.59210000  1.0 0.1113636242
H  H2  1  0.92990000  0.57450000  0.40790000  1.0 0.1113636242
H  H3  1  0.12380000  0.44760000  0.92270000  1.0 0.1220802562
H  H4  1  0.87620000  0.55240000  0.07730000  1.0 0.1220802562
H  H5  1  0.16850000  0.15250000  0.75490000  1.0 0.0994696924
H  H6  1  0.83150000  0.84750000  0.24510000  1.0 0.0994696924
H  H7  1  0.05840000  0.24400000  0.48590000  1.0 0.1440917896
H  H8  1  0.94160000  0.75600000  0.51410000  1.0 0.1440917896
H  H9  1  0.07610000  0.13170000  0.54670000  1.0 0.1220802562
H  H10  1  0.92390000  0.86830000  0.45330000  1.0 0.1220802562
H  H11  1  0.09240000  0.61060000  0.69980000  1.0 0.1482509893
H  H12  1  0.90760000  0.38940000  0.30020000  1.0 0.1482509893
H  H13  1  0.11700000  0.61980000  0.83070000  1.0 0.161925246
H  H14  1  0.88300000  0.38020000  0.16930000  1.0 0.161925246
H  H15  1  0.22530000  0.29290000  0.02560000  1.0 0.1482509893
H  H16  1  0.77470000  0.70710000  0.97440000  1.0 0.1482509893
H  H17  1  0.24140000  0.17550000  0.95930000  1.0 0.1482509893
H  H18  1  0.75860000  0.82450000  0.04070000  1.0 0.1482509893
H  H19  1  0.40700000  0.07850000  0.62500000  1.0 0.3772820728
H  H20  1  0.59300000  0.92150000  0.37500000  1.0 0.3772820728
H  H21  1  0.70200000  0.51100000  0.82600000  1.0 0.3696690248
H  H22  1  0.29800000  0.48900000  0.17400000  1.0 0.3696690248
H  H23  1  0.81700000  0.27800000  0.87790000  1.0 0.3772820728
H  H24  1  0.18300000  0.72200000  0.12210000  1.0 0.3772820728
C  C1  1  0.12050000  0.27930000  0.65690000  1.0 0.172959716
C  C2  1  0.87950000  0.72070000  0.34310000  1.0 0.172959716
C  C3  1  0.09100000  0.39150000  0.65890000  1.0 -0.2585652648
C  C4  1  0.90900000  0.60850000  0.34110000  1.0 -0.2585652648
C  C5  1  0.09140000  0.45480000  0.75730000  1.0 0.172959716
C  C6  1  0.90860000  0.54520000  0.24270000  1.0 0.172959716
C  C7  1  0.12250000  0.40480000  0.85520000  1.0 -0.2585652648
C  C8  1  0.87750000  0.59520000  0.14480000  1.0 -0.2585652648
C  C9  1  0.15200000  0.29190000  0.85460000  1.0 0.161925246
C  C10  1  0.84800000  0.70810000  0.14540000  1.0 0.161925246
C  C11  1  0.14990000  0.22950000  0.75560000  1.0 -0.2585652648
C  C12  1  0.85010000  0.77050000  0.24440000  1.0 -0.2585652648
C  C13  1  0.12420000  0.21230000  0.55050000  1.0 -0.6502213134
C  C14  1  0.87580000  0.78770000  0.44950000  1.0 -0.6502213134
C  C15  1  0.05500000  0.57540000  0.75770000  1.0 -0.6061266316
C  C16  1  0.94500000  0.42460000  0.24230000  1.0 -0.6061266316
C  C17  1  0.17230000  0.23540000  0.95930000  1.0 -0.639257188
C  C18  1  0.82770000  0.76460000  0.04070000  1.0 -0.639257188
O  O1  1  0.40470000  0.34080000  0.56520000  1.0 -0.8611160172
O  O2  1  0.59530000  0.65920000  0.43480000  1.0 -0.8611160172
O  O3  1  0.32290000  0.15170000  0.43400000  1.0 -0.9505650653
O  O4  1  0.67710000  0.84830000  0.56600000  1.0 -0.9505650653
O  O5  1  0.42070000  0.15880000  0.64160000  1.0 -0.6595305158
O  O6  1  0.57930000  0.84120000  0.35840000  1.0 -0.6595305158
O  O7  1  0.82430000  0.70810000  0.71960000  1.0 -0.9120655013
O  O8  1  0.17570000  0.29190000  0.28040000  1.0 -0.9120655013
O  O9  1  0.74540000  0.50220000  0.63100000  1.0 -0.8707821323
O  O10  1  0.25460000  0.49780000  0.36900000  1.0 -0.8707821323
O  O11  1  0.80750000  0.54850000  0.83840000  1.0 -0.6595305158
O  O12  1  0.19250000  0.45150000  0.16160000  1.0 -0.6595305158
O  O13  1  0.86960000  0.26860000  0.95210000  1.0 -0.6502213134
O  O14  1  0.13040000  0.73140000  0.04790000  1.0 -0.6502213134
O  O15  1  0.90900000  0.07780000  0.87010000  1.0 -0.9120655013
O  O16  1  0.09100000  0.92220000  0.12990000  1.0 -0.9120655013
O  O17  1  0.99290000  0.13930000  0.07980000  1.0 -0.8707821323
O  O18  1  0.00710000  0.86070000  0.92020000  1.0 -0.8707821323
