# DDEC6 charges by PACMAN v1.1 (https://github.com/mtap-research/PACMAN-charge/)
data_ZOFDUV_ASR_pacman
_symmetry_space_group_name_H-M   'P 1'
_cell_length_a   18.60650000
_cell_length_b   18.60650000
_cell_length_c   18.60650000
_cell_angle_alpha   60.00000000
_cell_angle_beta   60.00000000
_cell_angle_gamma   60.00000000
_symmetry_Int_Tables_number   1
_chemical_formula_structural   CuH2C6(O2F)2
_chemical_formula_sum   'Cu12 H24 C72 O48 F24'
_cell_volume   4554.90227870
_cell_formula_units_Z   12
loop_
 _symmetry_equiv_pos_site_id
 _symmetry_equiv_pos_as_xyz
  1  'x, y, z'
loop_
 _atom_site_type_symbol
 _atom_site_label
 _atom_site_symmetry_multiplicity
 _atom_site_fract_x
 _atom_site_fract_y
 _atom_site_fract_z
 _atom_site_occupancy
 _atom_site_charge
Cu  Cu1  1  0.42896000  0.00000000  0.00000000  1.0 0.8318575301
Cu  Cu2  1  0.00000000  0.42896000  0.57104000  1.0 0.8318575301
Cu  Cu3  1  0.00000000  0.57104000  0.42896000  1.0 0.8318575301
Cu  Cu4  1  0.57104000  0.00000000  0.00000000  1.0 0.8318575301
Cu  Cu5  1  0.00000000  0.42896000  0.00000000  1.0 0.8318575301
Cu  Cu6  1  0.57104000  0.00000000  0.42896000  1.0 0.8318575301
Cu  Cu7  1  0.42896000  0.00000000  0.57104000  1.0 0.8318575301
Cu  Cu8  1  0.00000000  0.57104000  0.00000000  1.0 0.8318575301
Cu  Cu9  1  0.00000000  0.00000000  0.42896000  1.0 0.8318575301
Cu  Cu10  1  0.42896000  0.57104000  0.00000000  1.0 0.8318575301
Cu  Cu11  1  0.57104000  0.42896000  0.00000000  1.0 0.8318575301
Cu  Cu12  1  0.00000000  0.00000000  0.57104000  1.0 0.8318575301
H  H1  1  0.48980000  0.27080000  0.96860000  1.0 0.2263378231
H  H2  1  0.27080000  0.48980000  0.27080000  1.0 0.2263378231
H  H3  1  0.96860000  0.27080000  0.48980000  1.0 0.2263378231
H  H4  1  0.27080000  0.96860000  0.27080000  1.0 0.2263378231
H  H5  1  0.96860000  0.48980000  0.27080000  1.0 0.2263378231
H  H6  1  0.27080000  0.27080000  0.48980000  1.0 0.2263378231
H  H7  1  0.48980000  0.96860000  0.27080000  1.0 0.2263378231
H  H8  1  0.27080000  0.27080000  0.96860000  1.0 0.2263378231
H  H9  1  0.27080000  0.96860000  0.48980000  1.0 0.2263378231
H  H10  1  0.48980000  0.27080000  0.27080000  1.0 0.2263378231
H  H11  1  0.27080000  0.48980000  0.96860000  1.0 0.2263378231
H  H12  1  0.96860000  0.27080000  0.27080000  1.0 0.2263378231
H  H13  1  0.51020000  0.72920000  0.72920000  1.0 0.2263378231
H  H14  1  0.72920000  0.51020000  0.03140000  1.0 0.2263378231
H  H15  1  0.03140000  0.72920000  0.72920000  1.0 0.2263378231
H  H16  1  0.72920000  0.03140000  0.51020000  1.0 0.2263378231
H  H17  1  0.03140000  0.51020000  0.72920000  1.0 0.2263378231
H  H18  1  0.72920000  0.72920000  0.03140000  1.0 0.2263378231
H  H19  1  0.51020000  0.03140000  0.72920000  1.0 0.2263378231
H  H20  1  0.72920000  0.72920000  0.51020000  1.0 0.2263378231
H  H21  1  0.72920000  0.03140000  0.72920000  1.0 0.2263378231
H  H22  1  0.51020000  0.72920000  0.03140000  1.0 0.2263378231
H  H23  1  0.72920000  0.51020000  0.72920000  1.0 0.2263378231
H  H24  1  0.03140000  0.72920000  0.51020000  1.0 0.2263378231
C  C1  1  0.43200000  0.16200000  0.97400000  1.0 0.5650993663
C  C2  1  0.16200000  0.43200000  0.43200000  1.0 0.5644920546
C  C3  1  0.97400000  0.43200000  0.43200000  1.0 0.5644920546
C  C4  1  0.43200000  0.97400000  0.16200000  1.0 0.5650993663
C  C5  1  0.97400000  0.43200000  0.16200000  1.0 0.5644920546
C  C6  1  0.43200000  0.16200000  0.43200000  1.0 0.5644920546
C  C7  1  0.43200000  0.97400000  0.43200000  1.0 0.5650993663
C  C8  1  0.16200000  0.43200000  0.97400000  1.0 0.5650993663
C  C9  1  0.16200000  0.97400000  0.43200000  1.0 0.5650993663
C  C10  1  0.43200000  0.43200000  0.16200000  1.0 0.5650993663
C  C11  1  0.43200000  0.43200000  0.97400000  1.0 0.5650993663
C  C12  1  0.97400000  0.16200000  0.43200000  1.0 0.5644920546
C  C13  1  0.56800000  0.83800000  0.56800000  1.0 0.5650993663
C  C14  1  0.83800000  0.56800000  0.02600000  1.0 0.5644920546
C  C15  1  0.02600000  0.56800000  0.83800000  1.0 0.5650993663
C  C16  1  0.56800000  0.02600000  0.56800000  1.0 0.5644920546
C  C17  1  0.02600000  0.56800000  0.56800000  1.0 0.5644920546
C  C18  1  0.56800000  0.83800000  0.02600000  1.0 0.5650993663
C  C19  1  0.56800000  0.02600000  0.83800000  1.0 0.5650993663
C  C20  1  0.83800000  0.56800000  0.56800000  1.0 0.5644920546
C  C21  1  0.83800000  0.02600000  0.56800000  1.0 0.5644920546
C  C22  1  0.56800000  0.56800000  0.02600000  1.0 0.5644920546
C  C23  1  0.56800000  0.56800000  0.83800000  1.0 0.5650993663
C  C24  1  0.02600000  0.83800000  0.56800000  1.0 0.5650993663
C  C25  1  0.38840000  0.25600000  0.96720000  1.0 -0.1611940242
C  C26  1  0.25600000  0.38840000  0.38840000  1.0 -0.1611940242
C  C27  1  0.96720000  0.38840000  0.38840000  1.0 -0.1611940242
C  C28  1  0.38840000  0.96720000  0.25600000  1.0 -0.1611940242
C  C29  1  0.96720000  0.38840000  0.25600000  1.0 -0.1611940242
C  C30  1  0.38840000  0.25600000  0.38840000  1.0 -0.1611940242
C  C31  1  0.38840000  0.96720000  0.38840000  1.0 -0.1611940242
C  C32  1  0.25600000  0.38840000  0.96720000  1.0 -0.1611940242
C  C33  1  0.25600000  0.96720000  0.38840000  1.0 -0.1611940242
C  C34  1  0.38840000  0.38840000  0.25600000  1.0 -0.1611940242
C  C35  1  0.38840000  0.38840000  0.96720000  1.0 -0.1611940242
C  C36  1  0.96720000  0.25600000  0.38840000  1.0 -0.1611940242
C  C37  1  0.61160000  0.74400000  0.61160000  1.0 -0.1611940242
C  C38  1  0.74400000  0.61160000  0.03280000  1.0 -0.1611940242
C  C39  1  0.03280000  0.61160000  0.74400000  1.0 -0.1611940242
C  C40  1  0.61160000  0.03280000  0.61160000  1.0 -0.1611940242
C  C41  1  0.03280000  0.61160000  0.61160000  1.0 -0.1611940242
C  C42  1  0.61160000  0.74400000  0.03280000  1.0 -0.1611940242
C  C43  1  0.61160000  0.03280000  0.74400000  1.0 -0.1611940242
C  C44  1  0.74400000  0.61160000  0.61160000  1.0 -0.1611940242
C  C45  1  0.74400000  0.03280000  0.61160000  1.0 -0.1611940242
C  C46  1  0.61160000  0.61160000  0.03280000  1.0 -0.1611940242
C  C47  1  0.61160000  0.61160000  0.74400000  1.0 -0.1611940242
C  C48  1  0.03280000  0.74400000  0.61160000  1.0 -0.1611940242
C  C49  1  0.43120000  0.30050000  0.96780000  1.0 0.0609605092
C  C50  1  0.30050000  0.43120000  0.30050000  1.0 0.0609605092
C  C51  1  0.96780000  0.30050000  0.43120000  1.0 0.0609605092
C  C52  1  0.30050000  0.96780000  0.30050000  1.0 0.0609605092
C  C53  1  0.96780000  0.43120000  0.30050000  1.0 0.0609605092
C  C54  1  0.30050000  0.30050000  0.43120000  1.0 0.0609605092
C  C55  1  0.43120000  0.96780000  0.30050000  1.0 0.0609605092
C  C56  1  0.30050000  0.30050000  0.96780000  1.0 0.0609605092
C  C57  1  0.30050000  0.96780000  0.43120000  1.0 0.0609605092
C  C58  1  0.43120000  0.30050000  0.30050000  1.0 0.0609605092
C  C59  1  0.30050000  0.43120000  0.96780000  1.0 0.0609605092
C  C60  1  0.96780000  0.30050000  0.30050000  1.0 0.0609605092
C  C61  1  0.56880000  0.69950000  0.69950000  1.0 0.0609605092
C  C62  1  0.69950000  0.56880000  0.03220000  1.0 0.0609605092
C  C63  1  0.03220000  0.69950000  0.69950000  1.0 0.0609605092
C  C64  1  0.69950000  0.03220000  0.56880000  1.0 0.0609605092
C  C65  1  0.03220000  0.56880000  0.69950000  1.0 0.0609605092
C  C66  1  0.69950000  0.69950000  0.03220000  1.0 0.0609605092
C  C67  1  0.56880000  0.03220000  0.69950000  1.0 0.0609605092
C  C68  1  0.69950000  0.69950000  0.56880000  1.0 0.0609605092
C  C69  1  0.69950000  0.03220000  0.69950000  1.0 0.0609605092
C  C70  1  0.56880000  0.69950000  0.03220000  1.0 0.0609605092
C  C71  1  0.69950000  0.56880000  0.69950000  1.0 0.0609605092
C  C72  1  0.03220000  0.69950000  0.56880000  1.0 0.0609605092
O  O1  1  0.38750000  0.12626000  0.97756000  1.0 -0.4932639062
O  O2  1  0.12626000  0.38750000  0.50868000  1.0 -0.4932639062
O  O3  1  0.97756000  0.50868000  0.38750000  1.0 -0.4932639062
O  O4  1  0.50868000  0.97756000  0.12626000  1.0 -0.4932639062
O  O5  1  0.97756000  0.38750000  0.12626000  1.0 -0.4932639062
O  O6  1  0.50868000  0.12626000  0.38750000  1.0 -0.4932639062
O  O7  1  0.38750000  0.97756000  0.50868000  1.0 -0.4932639062
O  O8  1  0.12626000  0.50868000  0.97756000  1.0 -0.4932639062
O  O9  1  0.12626000  0.97756000  0.38750000  1.0 -0.4932639062
O  O10  1  0.38750000  0.50868000  0.12626000  1.0 -0.4932639062
O  O11  1  0.50868000  0.38750000  0.97756000  1.0 -0.4932639062
O  O12  1  0.97756000  0.12626000  0.50868000  1.0 -0.4932639062
O  O13  1  0.61250000  0.87374000  0.49132000  1.0 -0.4932639062
O  O14  1  0.87374000  0.61250000  0.02244000  1.0 -0.4932639062
O  O15  1  0.02244000  0.49132000  0.87374000  1.0 -0.4932639062
O  O16  1  0.49132000  0.02244000  0.61250000  1.0 -0.4932639062
O  O17  1  0.02244000  0.61250000  0.49132000  1.0 -0.4932639062
O  O18  1  0.49132000  0.87374000  0.02244000  1.0 -0.4932639062
O  O19  1  0.61250000  0.02244000  0.87374000  1.0 -0.4932639062
O  O20  1  0.87374000  0.49132000  0.61250000  1.0 -0.4932639062
O  O21  1  0.87374000  0.02244000  0.49132000  1.0 -0.4932639062
O  O22  1  0.61250000  0.49132000  0.02244000  1.0 -0.4932639062
O  O23  1  0.49132000  0.61250000  0.87374000  1.0 -0.4932639062
O  O24  1  0.02244000  0.87374000  0.61250000  1.0 -0.4932639062
O  O25  1  0.61250000  0.87374000  0.02244000  1.0 -0.4932639062
O  O26  1  0.87374000  0.61250000  0.49132000  1.0 -0.4932639062
O  O27  1  0.02244000  0.49132000  0.61250000  1.0 -0.4932639062
O  O28  1  0.49132000  0.02244000  0.87374000  1.0 -0.4932639062
O  O29  1  0.02244000  0.61250000  0.87374000  1.0 -0.4932639062
O  O30  1  0.49132000  0.87374000  0.61250000  1.0 -0.4932639062
O  O31  1  0.61250000  0.02244000  0.49132000  1.0 -0.4932639062
O  O32  1  0.87374000  0.49132000  0.02244000  1.0 -0.4932639062
O  O33  1  0.87374000  0.02244000  0.61250000  1.0 -0.4932639062
O  O34  1  0.61250000  0.49132000  0.87374000  1.0 -0.4932639062
O  O35  1  0.49132000  0.61250000  0.02244000  1.0 -0.4932639062
O  O36  1  0.02244000  0.87374000  0.49132000  1.0 -0.4932639062
O  O37  1  0.38750000  0.12626000  0.50868000  1.0 -0.4932639062
O  O38  1  0.12626000  0.38750000  0.97756000  1.0 -0.4932639062
O  O39  1  0.97756000  0.50868000  0.12626000  1.0 -0.4932639062
O  O40  1  0.50868000  0.97756000  0.38750000  1.0 -0.4932639062
O  O41  1  0.97756000  0.38750000  0.50868000  1.0 -0.4932639062
O  O42  1  0.50868000  0.12626000  0.97756000  1.0 -0.4932639062
O  O43  1  0.38750000  0.97756000  0.12626000  1.0 -0.4932639062
O  O44  1  0.12626000  0.50868000  0.38750000  1.0 -0.4932639062
O  O45  1  0.12626000  0.97756000  0.50868000  1.0 -0.4932639062
O  O46  1  0.38750000  0.50868000  0.97756000  1.0 -0.4932639062
O  O47  1  0.50868000  0.38750000  0.12626000  1.0 -0.4932639062
O  O48  1  0.97756000  0.12626000  0.38750000  1.0 -0.4932639062
F  F1  1  0.52850000  0.25230000  0.96690000  1.0 -0.1203262759
F  F2  1  0.25230000  0.52850000  0.25230000  1.0 -0.1203262759
F  F3  1  0.96690000  0.25230000  0.52850000  1.0 -0.1203262759
F  F4  1  0.25230000  0.96690000  0.25230000  1.0 -0.1203262759
F  F5  1  0.96690000  0.52850000  0.25230000  1.0 -0.1203262759
F  F6  1  0.25230000  0.25230000  0.52850000  1.0 -0.1203262759
F  F7  1  0.52850000  0.96690000  0.25230000  1.0 -0.1203262759
F  F8  1  0.25230000  0.25230000  0.96690000  1.0 -0.1203262759
F  F9  1  0.25230000  0.96690000  0.52850000  1.0 -0.1203262759
F  F10  1  0.52850000  0.25230000  0.25230000  1.0 -0.1203262759
F  F11  1  0.25230000  0.52850000  0.96690000  1.0 -0.1203262759
F  F12  1  0.96690000  0.25230000  0.25230000  1.0 -0.1203262759
F  F13  1  0.47150000  0.74770000  0.74770000  1.0 -0.1203262759
F  F14  1  0.74770000  0.47150000  0.03310000  1.0 -0.1203262759
F  F15  1  0.03310000  0.74770000  0.74770000  1.0 -0.1203262759
F  F16  1  0.74770000  0.03310000  0.47150000  1.0 -0.1203262759
F  F17  1  0.03310000  0.47150000  0.74770000  1.0 -0.1203262759
F  F18  1  0.74770000  0.74770000  0.03310000  1.0 -0.1203262759
F  F19  1  0.47150000  0.03310000  0.74770000  1.0 -0.1203262759
F  F20  1  0.74770000  0.74770000  0.47150000  1.0 -0.1203262759
F  F21  1  0.74770000  0.03310000  0.74770000  1.0 -0.1203262759
F  F22  1  0.47150000  0.74770000  0.03310000  1.0 -0.1203262759
F  F23  1  0.74770000  0.47150000  0.74770000  1.0 -0.1203262759
F  F24  1  0.03310000  0.74770000  0.47150000  1.0 -0.1203262759
