# DDEC6 charges by PACMAN v1.1 (https://github.com/mtap-research/PACMAN-charge/)
data_ZOGREV_FSR_pacman
_symmetry_space_group_name_H-M   'P 1'
_cell_length_a   17.68610000
_cell_length_b   17.68610000
_cell_length_c   7.80290000
_cell_angle_alpha   78.99910000
_cell_angle_beta   101.00100000
_cell_angle_gamma   128.09100000
_symmetry_Int_Tables_number   1
_chemical_formula_structural   ZrH6C13NO6
_chemical_formula_sum   'Zr4 H24 C52 N4 O24'
_cell_volume   1877.17490652
_cell_formula_units_Z   4
loop_
 _symmetry_equiv_pos_site_id
 _symmetry_equiv_pos_as_xyz
  1  'x, y, z'
loop_
 _atom_site_type_symbol
 _atom_site_label
 _atom_site_symmetry_multiplicity
 _atom_site_fract_x
 _atom_site_fract_y
 _atom_site_fract_z
 _atom_site_occupancy
 _atom_site_charge
Zr  Zr1  1  0.05577000  0.97227000  0.15643000  1.0 2.3508118502
Zr  Zr2  1  0.94278000  0.02762000  0.83403000  1.0 2.3419903628
Zr  Zr3  1  0.02773000  0.94423000  0.65643000  1.0 2.3508118502
Zr  Zr4  1  0.97238000  0.05722000  0.33403000  1.0 2.3419903628
H  H1  1  0.31827000  0.01361000  0.18192000  1.0 0.1401163227
H  H2  1  0.46165000  0.02993000  0.21011000  1.0 0.119223422
H  H3  1  0.23961000  0.90059000  0.71854000  1.0 0.1301588006
H  H4  1  0.38299000  0.91691000  0.74674000  1.0 0.119223422
H  H5  1  0.72539000  0.05993000  0.26197000  1.0 0.1401163227
H  H6  1  0.58201000  0.04363000  0.23378000  1.0 0.1135966889
H  H7  1  0.64674000  0.94692000  0.79860000  1.0 0.1301588006
H  H8  1  0.50336000  0.93060000  0.77041000  1.0 0.1135966889
H  H9  1  0.23626000  0.36302000  0.29493000  1.0 0.119223422
H  H10  1  0.35086000  0.25066000  0.13773000  1.0 0.1478693596
H  H11  1  0.66765000  0.78919000  0.32297000  1.0 0.1401163227
H  H12  1  0.78226000  0.67682000  0.16577000  1.0 0.1301588006
H  H13  1  0.98639000  0.68173000  0.68192000  1.0 0.1401163227
H  H14  1  0.97007000  0.53835000  0.71011000  1.0 0.119223422
H  H15  1  0.09941000  0.76039000  0.21854000  1.0 0.1301588006
H  H16  1  0.08309000  0.61701000  0.24674000  1.0 0.119223422
H  H17  1  0.94007000  0.27461000  0.76197000  1.0 0.1401163227
H  H18  1  0.95637000  0.41799000  0.73378000  1.0 0.1135966889
H  H19  1  0.05308000  0.35326000  0.29860000  1.0 0.1301588006
H  H20  1  0.06940000  0.49664000  0.27041000  1.0 0.1135966889
H  H21  1  0.63698000  0.76374000  0.79493000  1.0 0.119223422
H  H22  1  0.74934000  0.64914000  0.63773000  1.0 0.1478693596
H  H23  1  0.21081000  0.33235000  0.82297000  1.0 0.1401163227
H  H24  1  0.32318000  0.21774000  0.66577000  1.0 0.1301588006
C  C1  1  0.43699000  0.97509000  0.98131000  1.0 0.078226339
C  C2  1  0.41750000  0.00422000  0.11238000  1.0 -0.1563628205
C  C3  1  0.33113000  0.99439000  0.09540000  1.0 -0.083921034
C  C4  1  0.26426000  0.95544000  0.94734000  1.0 -0.0440179185
C  C5  1  0.28375000  0.92631000  0.81627000  1.0 -0.0899246472
C  C6  1  0.37012000  0.93614000  0.83326000  1.0 -0.1523577186
C  C7  1  0.52800000  0.98544000  0.99921000  1.0 0.0735266096
C  C8  1  0.59488000  0.02440000  0.14726000  1.0 -0.1523577186
C  C9  1  0.68125000  0.03423000  0.16425000  1.0 -0.0899246472
C  C10  1  0.70074000  0.00510000  0.03317000  1.0 -0.0478564092
C  C11  1  0.63387000  0.96615000  0.88512000  1.0 -0.0899246472
C  C12  1  0.54750000  0.95632000  0.86814000  1.0 -0.1523577186
C  C13  1  0.17324000  0.94508000  0.92945000  1.0 0.627891343
C  C14  1  0.79176000  0.01546000  0.05107000  1.0 0.6524248533
C  C15  1  0.46103000  0.47229000  0.22721000  1.0 0.0899305269
C  C16  1  0.28925000  0.37053000  0.26564000  1.0 0.0102855041
C  C17  1  0.27801000  0.29147000  0.21532000  1.0 -0.073956348
C  C18  1  0.35828000  0.30284000  0.17094000  1.0 -0.1813553237
C  C19  1  0.44980000  0.39324000  0.17689000  1.0 0.2479181252
C  C20  1  0.55747000  0.56755000  0.23348000  1.0 0.0899305269
C  C21  1  0.56872000  0.64660000  0.28380000  1.0 0.2479181252
C  C22  1  0.66023000  0.73701000  0.28975000  1.0 -0.1929065623
C  C23  1  0.74051000  0.74837000  0.24538000  1.0 -0.073956348
C  C24  1  0.72926000  0.66932000  0.19506000  1.0 0.0043487843
C  C25  1  0.18157000  0.19621000  0.20905000  1.0 0.6524248533
C  C26  1  0.83694000  0.84364000  0.25165000  1.0 0.6367830745
C  C27  1  0.02491000  0.56301000  0.48131000  1.0 0.078226339
C  C28  1  0.99578000  0.58250000  0.61238000  1.0 -0.1563628205
C  C29  1  0.00561000  0.66887000  0.59540000  1.0 -0.083921034
C  C30  1  0.04456000  0.73574000  0.44734000  1.0 -0.0440179185
C  C31  1  0.07369000  0.71625000  0.31627000  1.0 -0.0899246472
C  C32  1  0.06386000  0.62988000  0.33326000  1.0 -0.1523577186
C  C33  1  0.01456000  0.47200000  0.49921000  1.0 0.0735266096
C  C34  1  0.97560000  0.40512000  0.64726000  1.0 -0.1523577186
C  C35  1  0.96577000  0.31875000  0.66425000  1.0 -0.0899246472
C  C36  1  0.99490000  0.29926000  0.53317000  1.0 -0.0478564092
C  C37  1  0.03385000  0.36613000  0.38512000  1.0 -0.0899246472
C  C38  1  0.04368000  0.45250000  0.36814000  1.0 -0.1523577186
C  C39  1  0.05492000  0.82676000  0.42945000  1.0 0.627891343
C  C40  1  0.98454000  0.20824000  0.55107000  1.0 0.6524248533
C  C41  1  0.52771000  0.53897000  0.72721000  1.0 0.0899305269
C  C42  1  0.62947000  0.71075000  0.76564000  1.0 0.0102855041
C  C43  1  0.70853000  0.72199000  0.71532000  1.0 -0.073956348
C  C44  1  0.69716000  0.64172000  0.67094000  1.0 -0.1813553237
C  C45  1  0.60676000  0.55020000  0.67689000  1.0 0.2479181252
C  C46  1  0.43245000  0.44253000  0.73348000  1.0 0.0899305269
C  C47  1  0.35340000  0.43128000  0.78380000  1.0 0.2479181252
C  C48  1  0.26299000  0.33977000  0.78975000  1.0 -0.1929065623
C  C49  1  0.25163000  0.25949000  0.74538000  1.0 -0.073956348
C  C50  1  0.33068000  0.27074000  0.69506000  1.0 0.0043487843
C  C51  1  0.80379000  0.81843000  0.70905000  1.0 0.6524248533
C  C52  1  0.15636000  0.16306000  0.75165000  1.0 0.6367830745
N  N1  1  0.38077000  0.46093000  0.27159000  1.0 -0.1813553237
N  N2  1  0.63775000  0.57891000  0.18911000  1.0 -0.1929065623
N  N3  1  0.53907000  0.61923000  0.77159000  1.0 -0.1813553237
N  N4  1  0.42109000  0.36225000  0.68911000  1.0 -0.1929065623
O  O1  1  0.00575000  0.95145000  0.89520000  1.0 -1.1817643531
O  O2  1  0.99877000  0.05363000  0.09190000  1.0 -1.144366432
O  O3  1  0.16455000  0.98887000  0.02354000  1.0 -0.580137033
O  O4  1  0.10515000  0.89255000  0.82026000  1.0 -0.5712541528
O  O5  1  0.83947000  0.02695000  0.19759000  1.0 -0.5712541528
O  O6  1  0.82083000  0.01271000  0.91965000  1.0 -0.5996844657
O  O7  1  0.11199000  0.18381000  0.26305000  1.0 -0.5613694577
O  O8  1  0.16977000  0.12821000  0.14976000  1.0 -0.5613694577
O  O9  1  0.85015000  0.90991000  0.32029000  1.0 -0.5613694577
O  O10  1  0.90512000  0.85776000  0.18829000  1.0 -0.5921865591
O  O11  1  0.52672000  0.40412000  0.13437000  1.0 -0.3859398254
O  O12  1  0.49180000  0.63572000  0.32632000  1.0 -0.3818321564
O  O13  1  0.04855000  0.99425000  0.39520000  1.0 -1.1817643531
O  O14  1  0.94637000  0.00123000  0.59190000  1.0 -1.144366432
O  O15  1  0.01113000  0.83545000  0.52354000  1.0 -0.580137033
O  O16  1  0.10745000  0.89485000  0.32026000  1.0 -0.5712541528
O  O17  1  0.97305000  0.16053000  0.69759000  1.0 -0.5712541528
O  O18  1  0.98729000  0.17917000  0.41965000  1.0 -0.5996844657
O  O19  1  0.81619000  0.88800000  0.76305000  1.0 -0.5613694577
O  O20  1  0.87179000  0.83023000  0.64976000  1.0 -0.5613694577
O  O21  1  0.09009000  0.14985000  0.82029000  1.0 -0.5613694577
O  O22  1  0.14224000  0.09488000  0.68829000  1.0 -0.5921865591
O  O23  1  0.59588000  0.47328000  0.63437000  1.0 -0.3859398254
O  O24  1  0.36428000  0.50820000  0.82632000  1.0 -0.3818321564
