# DDEC6 charges by PACMAN v1.1 (https://github.com/mtap-research/PACMAN-charge/)
data_ZOHBIK_ASR_pacman
_symmetry_space_group_name_H-M   'P 1'
_cell_length_a   7.55430000
_cell_length_b   13.75910000
_cell_length_c   21.81410000
_cell_angle_alpha   90.00000000
_cell_angle_beta   105.12200000
_cell_angle_gamma   90.00000000
_symmetry_Int_Tables_number   1
_chemical_formula_structural   FePH14PtC13N5O3
_chemical_formula_sum   'Fe4 P4 H56 Pt4 C52 N20 O12'
_cell_volume   2188.85247889
_cell_formula_units_Z   4
loop_
 _symmetry_equiv_pos_site_id
 _symmetry_equiv_pos_as_xyz
  1  'x, y, z'
loop_
 _atom_site_type_symbol
 _atom_site_label
 _atom_site_symmetry_multiplicity
 _atom_site_fract_x
 _atom_site_fract_y
 _atom_site_fract_z
 _atom_site_occupancy
 _atom_site_charge
Fe  Fe1  1  0.96502000  0.52921000  0.20977000  1.0 0.801272998
Fe  Fe2  1  0.03498000  0.02921000  0.29023000  1.0 0.801272998
Fe  Fe3  1  0.03498000  0.47079000  0.79023000  1.0 0.801272998
Fe  Fe4  1  0.96502000  0.97079000  0.70977000  1.0 0.801272998
P  P1  1  0.23753000  0.33984000  0.50753000  1.0 1.1282798148
P  P2  1  0.76247000  0.83984000  0.99247000  1.0 1.1282798148
P  P3  1  0.76247000  0.66016000  0.49247000  1.0 1.1282798148
P  P4  1  0.23753000  0.16016000  0.00753000  1.0 1.1282798148
H  H1  1  0.04780000  0.59150000  0.35220000  1.0 0.1190560371
H  H2  1  0.14580000  0.53260000  0.45490000  1.0 0.1462426394
H  H3  1  0.12160000  0.26100000  0.38160000  1.0 0.1462426394
H  H4  1  0.01860000  0.32800000  0.28030000  1.0 0.1122456156
H  H5  1  0.53960000  0.40770000  0.61800000  1.0 0.0922978561
H  H6  1  0.34530000  0.39550000  0.63400000  1.0 0.0698772551
H  H7  1  0.52270000  0.57070000  0.61990000  1.0 0.1373248098
H  H8  1  0.45830000  0.53560000  0.68070000  1.0 0.1342647098
H  H9  1  0.30920000  0.56860000  0.61750000  1.0 0.1373248098
H  H10  1  0.09810000  0.17740000  0.55780000  1.0 0.0922978561
H  H11  1  0.95570000  0.19960000  0.49080000  1.0 0.0830099009
H  H12  1  0.89530000  0.23530000  0.61170000  1.0 0.1342647098
H  H13  1  0.78790000  0.15800000  0.56060000  1.0 0.1551516302
H  H14  1  0.75770000  0.27190000  0.54700000  1.0 0.1373248098
H  H15  1  0.95220000  0.09150000  0.14780000  1.0 0.1190560371
H  H16  1  0.85420000  0.03260000  0.04510000  1.0 0.1462426394
H  H17  1  0.87840000  0.76100000  0.11840000  1.0 0.1462426394
H  H18  1  0.98140000  0.82800000  0.21970000  1.0 0.1122456156
H  H19  1  0.46040000  0.90770000  0.88200000  1.0 0.0922978561
H  H20  1  0.65470000  0.89550000  0.86600000  1.0 0.0698772551
H  H21  1  0.47730000  0.07070000  0.88010000  1.0 0.1373248098
H  H22  1  0.54170000  0.03560000  0.81930000  1.0 0.1342647098
H  H23  1  0.69080000  0.06860000  0.88250000  1.0 0.1373248098
H  H24  1  0.90190000  0.67740000  0.94220000  1.0 0.0922978561
H  H25  1  0.04430000  0.69960000  0.00920000  1.0 0.0830099009
H  H26  1  0.10470000  0.73530000  0.88830000  1.0 0.1342647098
H  H27  1  0.21210000  0.65800000  0.93940000  1.0 0.1551516302
H  H28  1  0.24230000  0.77190000  0.95300000  1.0 0.1373248098
H  H29  1  0.95220000  0.40850000  0.64780000  1.0 0.1190560371
H  H30  1  0.85420000  0.46740000  0.54510000  1.0 0.1462426394
H  H31  1  0.87840000  0.73900000  0.61840000  1.0 0.1462426394
H  H32  1  0.98140000  0.67200000  0.71970000  1.0 0.1122456156
H  H33  1  0.46040000  0.59230000  0.38200000  1.0 0.0922978561
H  H34  1  0.65470000  0.60450000  0.36600000  1.0 0.0698772551
H  H35  1  0.47730000  0.42930000  0.38010000  1.0 0.1373248098
H  H36  1  0.54170000  0.46440000  0.31930000  1.0 0.1342647098
H  H37  1  0.69080000  0.43140000  0.38250000  1.0 0.1373248098
H  H38  1  0.90190000  0.82260000  0.44220000  1.0 0.0922978561
H  H39  1  0.04430000  0.80040000  0.50920000  1.0 0.0830099009
H  H40  1  0.10470000  0.76470000  0.38830000  1.0 0.1342647098
H  H41  1  0.21210000  0.84200000  0.43940000  1.0 0.1551516302
H  H42  1  0.24230000  0.72810000  0.45300000  1.0 0.1373248098
H  H43  1  0.04780000  0.90850000  0.85220000  1.0 0.1190560371
H  H44  1  0.14580000  0.96740000  0.95490000  1.0 0.1462426394
H  H45  1  0.12160000  0.23900000  0.88160000  1.0 0.1462426394
H  H46  1  0.01860000  0.17200000  0.78030000  1.0 0.1122456156
H  H47  1  0.53960000  0.09230000  0.11800000  1.0 0.0922978561
H  H48  1  0.34530000  0.10450000  0.13400000  1.0 0.0698772551
H  H49  1  0.52270000  0.92930000  0.11990000  1.0 0.1373248098
H  H50  1  0.45830000  0.96440000  0.18070000  1.0 0.1342647098
H  H51  1  0.30920000  0.93140000  0.11750000  1.0 0.1373248098
H  H52  1  0.09810000  0.32260000  0.05780000  1.0 0.0922978561
H  H53  1  0.95570000  0.30040000  0.99080000  1.0 0.0830099009
H  H54  1  0.89530000  0.26470000  0.11170000  1.0 0.1342647098
H  H55  1  0.78790000  0.34200000  0.06060000  1.0 0.1551516302
H  H56  1  0.75770000  0.22810000  0.04700000  1.0 0.1373248098
Pt  Pt1  1  0.48040000  0.27545000  0.22037000  1.0 0.1044349792
Pt  Pt2  1  0.51960000  0.77545000  0.27963000  1.0 0.1044349792
Pt  Pt3  1  0.51960000  0.72455000  0.77963000  1.0 0.1122456156
Pt  Pt4  1  0.48040000  0.22455000  0.72037000  1.0 0.1044349792
C  C1  1  0.31000000  0.68210000  0.25620000  1.0 0.0604924572
C  C2  1  0.68540000  0.68300000  0.25160000  1.0 0.0604924572
C  C3  1  0.64300000  0.37140000  0.19460000  1.0 0.0698772551
C  C4  1  0.27720000  0.37030000  0.19920000  1.0 0.0604924572
C  C5  1  0.06430000  0.52340000  0.35830000  1.0 0.0922978561
C  C6  1  0.12340000  0.48910000  0.41990000  1.0 -0.1100001089
C  C7  1  0.14930000  0.38970000  0.42940000  1.0 -0.132107576
C  C8  1  0.10840000  0.32940000  0.37660000  1.0 -0.1100001089
C  C9  1  0.04770000  0.36990000  0.31620000  1.0 0.0922978561
C  C10  1  0.41500000  0.43550000  0.61060000  1.0 0.0698772551
C  C11  1  0.42730000  0.53600000  0.63410000  1.0 -0.4032175444
C  C12  1  0.00090000  0.22260000  0.53520000  1.0 0.0698772551
C  C13  1  0.84730000  0.22190000  0.56630000  1.0 -0.3936808907
C  C14  1  0.69000000  0.18210000  0.24380000  1.0 0.0604924572
C  C15  1  0.31460000  0.18300000  0.24840000  1.0 0.0698772551
C  C16  1  0.35700000  0.87140000  0.30540000  1.0 0.0698772551
C  C17  1  0.72280000  0.87030000  0.30080000  1.0 0.0604924572
C  C18  1  0.93570000  0.02340000  0.14170000  1.0 0.0922978561
C  C19  1  0.87660000  0.98910000  0.08010000  1.0 -0.1100001089
C  C20  1  0.85070000  0.88970000  0.07060000  1.0 -0.132107576
C  C21  1  0.89160000  0.82940000  0.12340000  1.0 -0.1100001089
C  C22  1  0.95230000  0.86990000  0.18380000  1.0 0.0922978561
C  C23  1  0.58500000  0.93550000  0.88940000  1.0 0.0698772551
C  C24  1  0.57270000  0.03600000  0.86590000  1.0 -0.4032175444
C  C25  1  0.99910000  0.72260000  0.96480000  1.0 0.0698772551
C  C26  1  0.15270000  0.72190000  0.93370000  1.0 -0.3936808907
C  C27  1  0.69000000  0.31790000  0.74380000  1.0 0.0604924572
C  C28  1  0.31460000  0.31700000  0.74840000  1.0 0.0604924572
C  C29  1  0.35700000  0.62860000  0.80540000  1.0 0.0698772551
C  C30  1  0.72280000  0.62970000  0.80080000  1.0 0.0604924572
C  C31  1  0.93570000  0.47660000  0.64170000  1.0 0.0922978561
C  C32  1  0.87660000  0.51090000  0.58010000  1.0 -0.1100001089
C  C33  1  0.85070000  0.61030000  0.57060000  1.0 -0.132107576
C  C34  1  0.89160000  0.67060000  0.62340000  1.0 -0.1100001089
C  C35  1  0.95230000  0.63010000  0.68380000  1.0 0.0922978561
C  C36  1  0.58500000  0.56450000  0.38940000  1.0 0.0698772551
C  C37  1  0.57270000  0.46400000  0.36590000  1.0 -0.4032175444
C  C38  1  0.99910000  0.77740000  0.46480000  1.0 0.0698772551
C  C39  1  0.15270000  0.77810000  0.43370000  1.0 -0.3936808907
C  C40  1  0.31000000  0.81790000  0.75620000  1.0 0.0604924572
C  C41  1  0.68540000  0.81700000  0.75160000  1.0 0.0604924572
C  C42  1  0.64300000  0.12860000  0.69460000  1.0 0.0698772551
C  C43  1  0.27720000  0.12970000  0.69920000  1.0 0.0604924572
C  C44  1  0.06430000  0.97660000  0.85830000  1.0 0.0922978561
C  C45  1  0.12340000  0.01090000  0.91990000  1.0 -0.1100001089
C  C46  1  0.14930000  0.11030000  0.92940000  1.0 -0.132107576
C  C47  1  0.10840000  0.17060000  0.87660000  1.0 -0.1100001089
C  C48  1  0.04770000  0.13010000  0.81620000  1.0 0.0922978561
C  C49  1  0.41500000  0.06450000  0.11060000  1.0 0.0698772551
C  C50  1  0.42730000  0.96400000  0.13410000  1.0 -0.4032175444
C  C51  1  0.00090000  0.27740000  0.03520000  1.0 0.0698772551
C  C52  1  0.84730000  0.27810000  0.06630000  1.0 -0.3936808907
N  N1  1  0.02930000  0.46660000  0.30720000  1.0 -0.2070373535
N  N2  1  0.18730000  0.63050000  0.24140000  1.0 -0.3809722677
N  N3  1  0.78400000  0.63200000  0.23570000  1.0 -0.3686727313
N  N4  1  0.74350000  0.42840000  0.18420000  1.0 -0.3686727313
N  N5  1  0.15820000  0.42550000  0.19120000  1.0 -0.3686727313
N  N6  1  0.97070000  0.96660000  0.19280000  1.0 -0.2070373535
N  N7  1  0.81270000  0.13050000  0.25860000  1.0 -0.3809722677
N  N8  1  0.21600000  0.13200000  0.26430000  1.0 -0.3686727313
N  N9  1  0.25650000  0.92840000  0.31580000  1.0 -0.3686727313
N  N10  1  0.84180000  0.92550000  0.30880000  1.0 -0.3686727313
N  N11  1  0.97070000  0.53340000  0.69280000  1.0 -0.2070373535
N  N12  1  0.81270000  0.36950000  0.75860000  1.0 -0.3809722677
N  N13  1  0.21600000  0.36800000  0.76430000  1.0 -0.3686727313
N  N14  1  0.25650000  0.57160000  0.81580000  1.0 -0.3686727313
N  N15  1  0.84180000  0.57450000  0.80880000  1.0 -0.3686727313
N  N16  1  0.02930000  0.03340000  0.80720000  1.0 -0.2070373535
N  N17  1  0.18730000  0.86950000  0.74140000  1.0 -0.3809722677
N  N18  1  0.78400000  0.86800000  0.73570000  1.0 -0.3686727313
N  N19  1  0.74350000  0.07160000  0.68420000  1.0 -0.3686727313
N  N20  1  0.15820000  0.07450000  0.69120000  1.0 -0.3686727313
O  O1  1  0.36300000  0.25750000  0.50900000  1.0 -0.6836929224
O  O2  1  0.32720000  0.43390000  0.54560000  1.0 -0.3809722677
O  O3  1  0.07460000  0.31670000  0.53550000  1.0 -0.4032175444
O  O4  1  0.63700000  0.75750000  0.99100000  1.0 -0.6836929224
O  O5  1  0.67280000  0.93390000  0.95440000  1.0 -0.3809722677
O  O6  1  0.92540000  0.81670000  0.96450000  1.0 -0.4032175444
O  O7  1  0.63700000  0.74250000  0.49100000  1.0 -0.6836929224
O  O8  1  0.67280000  0.56610000  0.45440000  1.0 -0.3809722677
O  O9  1  0.92540000  0.68330000  0.46450000  1.0 -0.4032175444
O  O10  1  0.36300000  0.24250000  0.00900000  1.0 -0.6836929224
O  O11  1  0.32720000  0.06610000  0.04560000  1.0 -0.3809722677
O  O12  1  0.07460000  0.18330000  0.03550000  1.0 -0.4032175444
