# DDEC6 charges by PACMAN v1.1 (https://github.com/mtap-research/PACMAN-charge/)
data_ZOHDUY_FSR_pacman
_symmetry_space_group_name_H-M   'P 1'
_cell_length_a   16.61380000
_cell_length_b   16.61380000
_cell_length_c   24.22580000
_cell_angle_alpha   90.00000000
_cell_angle_beta   90.00000000
_cell_angle_gamma   120.00000000
_symmetry_Int_Tables_number   1
_chemical_formula_structural   Co3H66C105(N3O)7
_chemical_formula_sum   'Co6 H132 C210 N42 O14'
_cell_volume   5790.90866579
_cell_formula_units_Z   2
loop_
 _symmetry_equiv_pos_site_id
 _symmetry_equiv_pos_as_xyz
  1  'x, y, z'
loop_
 _atom_site_type_symbol
 _atom_site_label
 _atom_site_symmetry_multiplicity
 _atom_site_fract_x
 _atom_site_fract_y
 _atom_site_fract_z
 _atom_site_occupancy
 _atom_site_charge
Co  Co1  1  0.26530000  0.52971000  0.70569000  1.0 0.68914403
Co  Co2  1  0.26441000  0.73470000  0.70569000  1.0 0.68914403
Co  Co3  1  0.47029000  0.73559000  0.70569000  1.0 0.68914403
Co  Co4  1  0.73559000  0.47029000  0.20569000  1.0 0.68914403
Co  Co5  1  0.52971000  0.26530000  0.20569000  1.0 0.68914403
Co  Co6  1  0.73470000  0.26441000  0.20569000  1.0 0.68914403
H  H1  1  0.13830000  0.44720000  0.82710000  1.0 0.0937967509
H  H2  1  0.13660000  0.68970000  0.82670000  1.0 0.0997483877
H  H3  1  0.06760000  0.67930000  0.89570000  1.0 0.0700758482
H  H4  1  0.08910000  0.44990000  0.92230000  1.0 0.0791887637
H  H5  1  0.98090000  0.64930000  0.97690000  1.0 0.0700758482
H  H6  1  0.01820000  0.35500000  0.00260000  1.0 0.0700758482
H  H7  1  0.91010000  0.55450000  0.05720000  1.0 0.0791887637
H  H8  1  0.93150000  0.32500000  0.08380000  1.0 0.0700758482
H  H9  1  0.07520000  0.37770000  0.69990000  1.0 0.0700758482
H  H10  1  0.30290000  0.35890000  0.69750000  1.0 0.0622476337
H  H11  1  0.99140000  0.22410000  0.69680000  1.0 0.0791887637
H  H12  1  0.22250000  0.20250000  0.69810000  1.0 0.0622476337
H  H13  1  0.06400000  0.36760000  0.72650000  1.0 0.0791887637
H  H14  1  0.98620000  0.21630000  0.74230000  1.0 0.0700758482
H  H15  1  0.22480000  0.20880000  0.73900000  1.0 0.0700758482
H  H16  1  0.30130000  0.36430000  0.73130000  1.0 0.0700758482
H  H17  1  0.09350000  0.63940000  0.92340000  1.0 0.0791887637
H  H18  1  0.05860000  0.38430000  0.89160000  1.0 0.0700758482
H  H19  1  0.97410000  0.32810000  0.97360000  1.0 0.0700758482
H  H20  1  0.02870000  0.66510000  0.00590000  1.0 0.0700758482
H  H21  1  0.94420000  0.60880000  0.08780000  1.0 0.0700758482
H  H22  1  0.90930000  0.35380000  0.05610000  1.0 0.0791887637
H  H23  1  0.30890000  0.86170000  0.82710000  1.0 0.0937967509
H  H24  1  0.55310000  0.86340000  0.82670000  1.0 0.0997483877
H  H25  1  0.61170000  0.93240000  0.89570000  1.0 0.0700758482
H  H26  1  0.36080000  0.91090000  0.92230000  1.0 0.0791887637
H  H27  1  0.66840000  0.01910000  0.97690000  1.0 0.0700758482
H  H28  1  0.33680000  0.98180000  0.00260000  1.0 0.0700758482
H  H29  1  0.64440000  0.08990000  0.05720000  1.0 0.0791887637
H  H30  1  0.39350000  0.06850000  0.08380000  1.0 0.0700758482
H  H31  1  0.30250000  0.92480000  0.69990000  1.0 0.0700758482
H  H32  1  0.05600000  0.69710000  0.69750000  1.0 0.0622476337
H  H33  1  0.23270000  0.00860000  0.69680000  1.0 0.0700758482
H  H34  1  0.98000000  0.77750000  0.69810000  1.0 0.0622476337
H  H35  1  0.30360000  0.93600000  0.72650000  1.0 0.0791887637
H  H36  1  0.23010000  0.01380000  0.74230000  1.0 0.0700758482
H  H37  1  0.98400000  0.77520000  0.73900000  1.0 0.0700758482
H  H38  1  0.06300000  0.69870000  0.73130000  1.0 0.0700758482
H  H39  1  0.54590000  0.90650000  0.92340000  1.0 0.0791887637
H  H40  1  0.32570000  0.94140000  0.89160000  1.0 0.0700758482
H  H41  1  0.35400000  0.02590000  0.97360000  1.0 0.0700758482
H  H42  1  0.63640000  0.97130000  0.00590000  1.0 0.0700758482
H  H43  1  0.66460000  0.05580000  0.08780000  1.0 0.0700758482
H  H44  1  0.44450000  0.09070000  0.05610000  1.0 0.0791887637
H  H45  1  0.55280000  0.69110000  0.82710000  1.0 0.0937967509
H  H46  1  0.31030000  0.44690000  0.82670000  1.0 0.0997483877
H  H47  1  0.32070000  0.38830000  0.89570000  1.0 0.0700758482
H  H48  1  0.55010000  0.63920000  0.92230000  1.0 0.0791887637
H  H49  1  0.35070000  0.33160000  0.97690000  1.0 0.0700758482
H  H50  1  0.64500000  0.66320000  0.00260000  1.0 0.0700758482
H  H51  1  0.44550000  0.35560000  0.05720000  1.0 0.0791887637
H  H52  1  0.67500000  0.60650000  0.08380000  1.0 0.0700758482
H  H53  1  0.62230000  0.69750000  0.69990000  1.0 0.0700758482
H  H54  1  0.64110000  0.94400000  0.69750000  1.0 0.0622476337
H  H55  1  0.77590000  0.76730000  0.69680000  1.0 0.0700758482
H  H56  1  0.79750000  0.02000000  0.69810000  1.0 0.0622476337
H  H57  1  0.63240000  0.69640000  0.72650000  1.0 0.0791887637
H  H58  1  0.78370000  0.76990000  0.74230000  1.0 0.0700758482
H  H59  1  0.79120000  0.01600000  0.73900000  1.0 0.0700758482
H  H60  1  0.63570000  0.93700000  0.73130000  1.0 0.0700758482
H  H61  1  0.36060000  0.45410000  0.92340000  1.0 0.0791887637
H  H62  1  0.61570000  0.67430000  0.89160000  1.0 0.0700758482
H  H63  1  0.67190000  0.64600000  0.97360000  1.0 0.0700758482
H  H64  1  0.33490000  0.36360000  0.00590000  1.0 0.0700758482
H  H65  1  0.39120000  0.33540000  0.08780000  1.0 0.0700758482
H  H66  1  0.64620000  0.55550000  0.05610000  1.0 0.0791887637
H  H67  1  0.69110000  0.55280000  0.32710000  1.0 0.0937967509
H  H68  1  0.44690000  0.31030000  0.32670000  1.0 0.0997483877
H  H69  1  0.38830000  0.32070000  0.39570000  1.0 0.0700758482
H  H70  1  0.63920000  0.55010000  0.42230000  1.0 0.0791887637
H  H71  1  0.33160000  0.35070000  0.47690000  1.0 0.0700758482
H  H72  1  0.66320000  0.64500000  0.50260000  1.0 0.0700758482
H  H73  1  0.35560000  0.44550000  0.55720000  1.0 0.0791887637
H  H74  1  0.60650000  0.67500000  0.58380000  1.0 0.0700758482
H  H75  1  0.69750000  0.62230000  0.19990000  1.0 0.0700758482
H  H76  1  0.94400000  0.64110000  0.19750000  1.0 0.0622476337
H  H77  1  0.76730000  0.77590000  0.19680000  1.0 0.0700758482
H  H78  1  0.02000000  0.79750000  0.19810000  1.0 0.0622476337
H  H79  1  0.69640000  0.63240000  0.22650000  1.0 0.0791887637
H  H80  1  0.76990000  0.78370000  0.24230000  1.0 0.0700758482
H  H81  1  0.01600000  0.79120000  0.23900000  1.0 0.0700758482
H  H82  1  0.93700000  0.63570000  0.23130000  1.0 0.0700758482
H  H83  1  0.45410000  0.36060000  0.42340000  1.0 0.0791887637
H  H84  1  0.67430000  0.61570000  0.39160000  1.0 0.0700758482
H  H85  1  0.64600000  0.67190000  0.47360000  1.0 0.0700758482
H  H86  1  0.36360000  0.33490000  0.50590000  1.0 0.0700758482
H  H87  1  0.33540000  0.39120000  0.58780000  1.0 0.0700758482
H  H88  1  0.55550000  0.64620000  0.55610000  1.0 0.0791887637
H  H89  1  0.44720000  0.13830000  0.32710000  1.0 0.0937967509
H  H90  1  0.68970000  0.13660000  0.32670000  1.0 0.0997483877
H  H91  1  0.67930000  0.06760000  0.39570000  1.0 0.0700758482
H  H92  1  0.44990000  0.08910000  0.42230000  1.0 0.0791887637
H  H93  1  0.64930000  0.98090000  0.47690000  1.0 0.0700758482
H  H94  1  0.35500000  0.01820000  0.50260000  1.0 0.0700758482
H  H95  1  0.55450000  0.91010000  0.55720000  1.0 0.0791887637
H  H96  1  0.32500000  0.93150000  0.58380000  1.0 0.0700758482
H  H97  1  0.37770000  0.07520000  0.19990000  1.0 0.0700758482
H  H98  1  0.35890000  0.30290000  0.19750000  1.0 0.0622476337
H  H99  1  0.22410000  0.99140000  0.19680000  1.0 0.0700758482
H  H100  1  0.20250000  0.22250000  0.19810000  1.0 0.0622476337
H  H101  1  0.36760000  0.06400000  0.22650000  1.0 0.0791887637
H  H102  1  0.21630000  0.98620000  0.24230000  1.0 0.0700758482
H  H103  1  0.20880000  0.22480000  0.23900000  1.0 0.0700758482
H  H104  1  0.36430000  0.30130000  0.23130000  1.0 0.0700758482
H  H105  1  0.63940000  0.09350000  0.42340000  1.0 0.0791887637
H  H106  1  0.38430000  0.05860000  0.39160000  1.0 0.0700758482
H  H107  1  0.32810000  0.97410000  0.47360000  1.0 0.0700758482
H  H108  1  0.66510000  0.02870000  0.50590000  1.0 0.0700758482
H  H109  1  0.60880000  0.94420000  0.58780000  1.0 0.0700758482
H  H110  1  0.35380000  0.90930000  0.55610000  1.0 0.0791887637
H  H111  1  0.86170000  0.30890000  0.32710000  1.0 0.0937967509
H  H112  1  0.86340000  0.55310000  0.32670000  1.0 0.0997483877
H  H113  1  0.93240000  0.61170000  0.39570000  1.0 0.0700758482
H  H114  1  0.91090000  0.36080000  0.42230000  1.0 0.0791887637
H  H115  1  0.01910000  0.66840000  0.47690000  1.0 0.0700758482
H  H116  1  0.98180000  0.33680000  0.50260000  1.0 0.0700758482
H  H117  1  0.08990000  0.64440000  0.55720000  1.0 0.0791887637
H  H118  1  0.06850000  0.39350000  0.58380000  1.0 0.0700758482
H  H119  1  0.92480000  0.30250000  0.19990000  1.0 0.0700758482
H  H120  1  0.69710000  0.05600000  0.19750000  1.0 0.0622476337
H  H121  1  0.00860000  0.23270000  0.19680000  1.0 0.0791887637
H  H122  1  0.77750000  0.98000000  0.19810000  1.0 0.0622476337
H  H123  1  0.93600000  0.30360000  0.22650000  1.0 0.0791887637
H  H124  1  0.01380000  0.23010000  0.24230000  1.0 0.0700758482
H  H125  1  0.77520000  0.98400000  0.23900000  1.0 0.0700758482
H  H126  1  0.69870000  0.06300000  0.23130000  1.0 0.0791887637
H  H127  1  0.90650000  0.54590000  0.42340000  1.0 0.0791887637
H  H128  1  0.94140000  0.32570000  0.39160000  1.0 0.0700758482
H  H129  1  0.02590000  0.35400000  0.47360000  1.0 0.0700758482
H  H130  1  0.97130000  0.63640000  0.50590000  1.0 0.0700758482
H  H131  1  0.05580000  0.66460000  0.58780000  1.0 0.0700758482
H  H132  1  0.09070000  0.44450000  0.55610000  1.0 0.0791887637
C  C1  1  0.14640000  0.50550000  0.81580000  1.0 -0.0403895786
C  C2  1  0.14550000  0.64000000  0.81540000  1.0 -0.0703006219
C  C3  1  0.08650000  0.56740000  0.90140000  1.0 0.0289032697
C  C4  1  0.05440000  0.62660000  0.91760000  1.0 -0.1712652158
C  C5  1  0.06710000  0.49030000  0.93340000  1.0 0.0025225372
C  C6  1  0.00290000  0.60880000  0.96580000  1.0 -0.088130134
C  C7  1  0.01560000  0.47250000  0.98160000  1.0 0.0139072719
C  C8  1  0.98350000  0.53180000  0.99780000  1.0 0.0203656548
C  C9  1  0.99630000  0.39560000  0.01370000  1.0 -0.0816265618
C  C10  1  0.93200000  0.51400000  0.04610000  1.0 -0.011782784
C  C11  1  0.94480000  0.37770000  0.06190000  1.0 -0.1511885545
C  C12  1  0.91260000  0.43690000  0.07810000  1.0 0.0203656548
C  C13  1  0.85670000  0.43310000  0.12980000  1.0 0.4128477422
C  C14  1  0.10560000  0.34220000  0.70200000  1.0 0.0375654683
C  C15  1  0.23730000  0.32950000  0.70120000  1.0 0.0203656548
C  C16  1  0.05660000  0.25230000  0.70210000  1.0 -0.1053037571
C  C17  1  0.19160000  0.23730000  0.70220000  1.0 -0.088130134
C  C18  1  0.09520000  0.19400000  0.70970000  1.0 0.0375654683
C  C19  1  0.04380000  0.08920000  0.71220000  1.0 0.1435339399
C  C20  1  0.09740000  0.33520000  0.73000000  1.0 0.0139072719
C  C21  1  0.05150000  0.24600000  0.73730000  1.0 -0.0816265618
C  C22  1  0.09440000  0.19110000  0.73790000  1.0 0.0289032697
C  C23  1  0.19080000  0.24070000  0.73650000  1.0 -0.088130134
C  C24  1  0.23530000  0.33250000  0.73170000  1.0 0.0203656548
C  C25  1  0.04420000  0.08690000  0.74110000  1.0 0.1232855169
C  C26  1  0.06930000  0.57620000  0.93360000  1.0 -0.0018982502
C  C27  1  0.08400000  0.51710000  0.89980000  1.0 0.0289032697
C  C28  1  0.04850000  0.42470000  0.91470000  1.0 -0.1712652158
C  C29  1  0.99840000  0.39130000  0.96340000  1.0 -0.0816265618
C  C30  1  0.98370000  0.45040000  0.99720000  1.0 0.0203656548
C  C31  1  0.01910000  0.54280000  0.98230000  1.0 0.0139072719
C  C32  1  0.00440000  0.60180000  0.01600000  1.0 -0.0703006219
C  C33  1  0.95430000  0.56850000  0.06480000  1.0 -0.1566610413
C  C34  1  0.91880000  0.47600000  0.07970000  1.0 0.0203656548
C  C35  1  0.93350000  0.41690000  0.04590000  1.0 -0.011782784
C  C36  1  0.35910000  0.85360000  0.81580000  1.0 -0.0403895786
C  C37  1  0.49450000  0.85450000  0.81540000  1.0 -0.0703006219
C  C38  1  0.48090000  0.91350000  0.90140000  1.0 0.0289032697
C  C39  1  0.57220000  0.94560000  0.91760000  1.0 -0.1712652158
C  C40  1  0.42320000  0.93290000  0.93340000  1.0 0.0025225372
C  C41  1  0.60590000  0.99710000  0.96580000  1.0 -0.088130134
C  C42  1  0.45690000  0.98440000  0.98160000  1.0 0.0203656548
C  C43  1  0.54830000  0.01650000  0.99780000  1.0 0.0203656548
C  C44  1  0.39930000  0.00370000  0.01370000  1.0 -0.0816265618
C  C45  1  0.58200000  0.06800000  0.04610000  1.0 -0.011782784
C  C46  1  0.43290000  0.05520000  0.06190000  1.0 -0.1511885545
C  C47  1  0.52430000  0.08740000  0.07810000  1.0 0.0203656548
C  C48  1  0.57640000  0.14330000  0.12980000  1.0 0.4128477422
C  C49  1  0.23660000  0.89440000  0.70200000  1.0 0.0375654683
C  C50  1  0.09220000  0.76270000  0.70120000  1.0 0.0203656548
C  C51  1  0.19570000  0.94340000  0.70210000  1.0 -0.1053037571
C  C52  1  0.04570000  0.80840000  0.70220000  1.0 -0.088130134
C  C53  1  0.09880000  0.90480000  0.70970000  1.0 0.0375654683
C  C54  1  0.04540000  0.95620000  0.71220000  1.0 0.1435339399
C  C55  1  0.23780000  0.90260000  0.73000000  1.0 0.0139072719
C  C56  1  0.19450000  0.94850000  0.73730000  1.0 -0.088130134
C  C57  1  0.09670000  0.90560000  0.73790000  1.0 0.0289032697
C  C58  1  0.04990000  0.80920000  0.73650000  1.0 -0.0816265618
C  C59  1  0.09720000  0.76470000  0.73170000  1.0 0.0203656548
C  C60  1  0.04270000  0.95580000  0.74110000  1.0 0.1232855169
C  C61  1  0.50690000  0.93070000  0.93360000  1.0 -0.0018982502
C  C62  1  0.43310000  0.91600000  0.89980000  1.0 0.0289032697
C  C63  1  0.37620000  0.95150000  0.91470000  1.0 -0.1712652158
C  C64  1  0.39290000  0.00160000  0.96340000  1.0 -0.088130134
C  C65  1  0.46670000  0.01630000  0.99720000  1.0 0.0203656548
C  C66  1  0.52370000  0.98090000  0.98230000  1.0 0.0203656548
C  C67  1  0.59740000  0.99560000  0.01600000  1.0 -0.0703006219
C  C68  1  0.61420000  0.04570000  0.06480000  1.0 -0.1566610413
C  C69  1  0.55720000  0.08120000  0.07970000  1.0 0.0203656548
C  C70  1  0.48340000  0.06650000  0.04590000  1.0 -0.011782784
C  C71  1  0.49450000  0.64090000  0.81580000  1.0 -0.0403895786
C  C72  1  0.36000000  0.50550000  0.81540000  1.0 -0.0703006219
C  C73  1  0.43260000  0.51910000  0.90140000  1.0 0.0289032697
C  C74  1  0.37340000  0.42780000  0.91760000  1.0 -0.1712652158
C  C75  1  0.50970000  0.57680000  0.93340000  1.0 0.0025225372
C  C76  1  0.39120000  0.39410000  0.96580000  1.0 -0.088130134
C  C77  1  0.52750000  0.54310000  0.98160000  1.0 0.0139072719
C  C78  1  0.46820000  0.45170000  0.99780000  1.0 0.0203656548
C  C79  1  0.60440000  0.60070000  0.01370000  1.0 -0.0816265618
C  C80  1  0.48600000  0.41800000  0.04610000  1.0 -0.011782784
C  C81  1  0.62230000  0.56710000  0.06190000  1.0 -0.1511885545
C  C82  1  0.56310000  0.47570000  0.07810000  1.0 0.0203656548
C  C83  1  0.56690000  0.42360000  0.12980000  1.0 0.4128477422
C  C84  1  0.65780000  0.76340000  0.70200000  1.0 0.0375654683
C  C85  1  0.67050000  0.90780000  0.70120000  1.0 0.0203656548
C  C86  1  0.74770000  0.80430000  0.70210000  1.0 -0.1053037571
C  C87  1  0.76270000  0.95430000  0.70220000  1.0 -0.088130134
C  C88  1  0.80600000  0.90120000  0.70970000  1.0 0.0375654683
C  C89  1  0.91080000  0.95460000  0.71220000  1.0 0.1435339399
C  C90  1  0.66480000  0.76220000  0.73000000  1.0 0.0139072719
C  C91  1  0.75400000  0.80550000  0.73730000  1.0 -0.088130134
C  C92  1  0.80890000  0.90330000  0.73790000  1.0 0.0289032697
C  C93  1  0.75930000  0.95010000  0.73650000  1.0 -0.088130134
C  C94  1  0.66750000  0.90280000  0.73170000  1.0 0.0203656548
C  C95  1  0.91310000  0.95730000  0.74110000  1.0 0.1232855169
C  C96  1  0.42380000  0.49310000  0.93360000  1.0 -0.0018982502
C  C97  1  0.48290000  0.56690000  0.89980000  1.0 0.0289032697
C  C98  1  0.57530000  0.62380000  0.91470000  1.0 -0.1712652158
C  C99  1  0.60870000  0.60710000  0.96340000  1.0 -0.0816265618
C  C100  1  0.54960000  0.53330000  0.99720000  1.0 0.0203656548
C  C101  1  0.45720000  0.47630000  0.98230000  1.0 0.0139072719
C  C102  1  0.39820000  0.40260000  0.01600000  1.0 -0.0703006219
C  C103  1  0.43150000  0.38580000  0.06480000  1.0 -0.1566610413
C  C104  1  0.52400000  0.44280000  0.07970000  1.0 0.0139072719
C  C105  1  0.58310000  0.51660000  0.04590000  1.0 -0.011782784
C  C106  1  0.64090000  0.49450000  0.31580000  1.0 -0.0403895786
C  C107  1  0.50550000  0.36000000  0.31540000  1.0 -0.0703006219
C  C108  1  0.51910000  0.43260000  0.40140000  1.0 0.0289032697
C  C109  1  0.42780000  0.37340000  0.41760000  1.0 -0.1712652158
C  C110  1  0.57680000  0.50970000  0.43340000  1.0 0.0025225372
C  C111  1  0.39410000  0.39120000  0.46580000  1.0 -0.088130134
C  C112  1  0.54310000  0.52750000  0.48160000  1.0 0.0139072719
C  C113  1  0.45170000  0.46820000  0.49780000  1.0 0.0203656548
C  C114  1  0.60070000  0.60440000  0.51370000  1.0 -0.0816265618
C  C115  1  0.41800000  0.48600000  0.54610000  1.0 -0.011782784
C  C116  1  0.56710000  0.62230000  0.56190000  1.0 -0.1511885545
C  C117  1  0.47570000  0.56310000  0.57810000  1.0 0.0203656548
C  C118  1  0.42360000  0.56690000  0.62980000  1.0 0.4128477422
C  C119  1  0.76340000  0.65780000  0.20200000  1.0 0.0375654683
C  C120  1  0.90780000  0.67050000  0.20120000  1.0 0.0203656548
C  C121  1  0.80430000  0.74770000  0.20210000  1.0 -0.104506247
C  C122  1  0.95430000  0.76270000  0.20220000  1.0 -0.088130134
C  C123  1  0.90120000  0.80600000  0.20970000  1.0 0.0375654683
C  C124  1  0.95460000  0.91080000  0.21220000  1.0 0.1435339399
C  C125  1  0.76220000  0.66480000  0.23000000  1.0 0.0139072719
C  C126  1  0.80550000  0.75400000  0.23730000  1.0 -0.088130134
C  C127  1  0.90330000  0.80890000  0.23790000  1.0 0.0289032697
C  C128  1  0.95010000  0.75930000  0.23650000  1.0 -0.0816265618
C  C129  1  0.90280000  0.66750000  0.23170000  1.0 0.0203656548
C  C130  1  0.95730000  0.91310000  0.24110000  1.0 0.1232855169
C  C131  1  0.49310000  0.42380000  0.43360000  1.0 -0.0018982502
C  C132  1  0.56690000  0.48290000  0.39980000  1.0 0.0289032697
C  C133  1  0.62380000  0.57530000  0.41470000  1.0 -0.1712652158
C  C134  1  0.60710000  0.60870000  0.46340000  1.0 -0.088130134
C  C135  1  0.53330000  0.54960000  0.49720000  1.0 0.0203656548
C  C136  1  0.47630000  0.45720000  0.48230000  1.0 0.0139072719
C  C137  1  0.40260000  0.39820000  0.51600000  1.0 -0.0589721414
C  C138  1  0.38580000  0.43150000  0.56480000  1.0 -0.1566610413
C  C139  1  0.44280000  0.52400000  0.57970000  1.0 0.0203656548
C  C140  1  0.51660000  0.58310000  0.54590000  1.0 -0.011782784
C  C141  1  0.50550000  0.14640000  0.31580000  1.0 -0.0403895786
C  C142  1  0.64000000  0.14550000  0.31540000  1.0 -0.0703006219
C  C143  1  0.56740000  0.08650000  0.40140000  1.0 0.0289032697
C  C144  1  0.62660000  0.05440000  0.41760000  1.0 -0.1712652158
C  C145  1  0.49030000  0.06710000  0.43340000  1.0 0.0025225372
C  C146  1  0.60880000  0.00290000  0.46580000  1.0 -0.088130134
C  C147  1  0.47250000  0.01560000  0.48160000  1.0 0.0139072719
C  C148  1  0.53180000  0.98350000  0.49780000  1.0 0.0203656548
C  C149  1  0.39560000  0.99630000  0.51370000  1.0 -0.0816265618
C  C150  1  0.51400000  0.93200000  0.54610000  1.0 -0.011782784
C  C151  1  0.37770000  0.94480000  0.56190000  1.0 -0.1511885545
C  C152  1  0.43690000  0.91260000  0.57810000  1.0 0.0203656548
C  C153  1  0.43310000  0.85670000  0.62980000  1.0 0.4128477422
C  C154  1  0.34220000  0.10560000  0.20200000  1.0 0.0375654683
C  C155  1  0.32950000  0.23730000  0.20120000  1.0 0.0203656548
C  C156  1  0.25230000  0.05660000  0.20210000  1.0 -0.1053037571
C  C157  1  0.23730000  0.19160000  0.20220000  1.0 -0.088130134
C  C158  1  0.19400000  0.09520000  0.20970000  1.0 0.0375654683
C  C159  1  0.08920000  0.04380000  0.21220000  1.0 0.1435339399
C  C160  1  0.33520000  0.09740000  0.23000000  1.0 0.0139072719
C  C161  1  0.24600000  0.05150000  0.23730000  1.0 -0.088130134
C  C162  1  0.19110000  0.09440000  0.23790000  1.0 0.0289032697
C  C163  1  0.24070000  0.19080000  0.23650000  1.0 -0.088130134
C  C164  1  0.33250000  0.23530000  0.23170000  1.0 0.0203656548
C  C165  1  0.08690000  0.04420000  0.24110000  1.0 0.1232855169
C  C166  1  0.57620000  0.06930000  0.43360000  1.0 -0.0018982502
C  C167  1  0.51710000  0.08400000  0.39980000  1.0 0.0289032697
C  C168  1  0.42470000  0.04850000  0.41470000  1.0 -0.1712652158
C  C169  1  0.39130000  0.99840000  0.46340000  1.0 -0.0816265618
C  C170  1  0.45040000  0.98370000  0.49720000  1.0 0.0203656548
C  C171  1  0.54280000  0.01910000  0.48230000  1.0 0.0139072719
C  C172  1  0.60180000  0.00440000  0.51600000  1.0 -0.0589721414
C  C173  1  0.56850000  0.95430000  0.56480000  1.0 -0.1566610413
C  C174  1  0.47600000  0.91880000  0.57970000  1.0 0.0139072719
C  C175  1  0.41690000  0.93350000  0.54590000  1.0 -0.0152471904
C  C176  1  0.85360000  0.35910000  0.31580000  1.0 -0.0403895786
C  C177  1  0.85450000  0.49450000  0.31540000  1.0 -0.0703006219
C  C178  1  0.91350000  0.48090000  0.40140000  1.0 0.0289032697
C  C179  1  0.94560000  0.57220000  0.41760000  1.0 -0.1712652158
C  C180  1  0.93290000  0.42320000  0.43340000  1.0 0.0025225372
C  C181  1  0.99710000  0.60590000  0.46580000  1.0 -0.088130134
C  C182  1  0.98440000  0.45690000  0.48160000  1.0 0.0139072719
C  C183  1  0.01650000  0.54830000  0.49780000  1.0 0.0203656548
C  C184  1  0.00370000  0.39930000  0.51370000  1.0 -0.0816265618
C  C185  1  0.06800000  0.58200000  0.54610000  1.0 -0.011782784
C  C186  1  0.05520000  0.43290000  0.56190000  1.0 -0.1511885545
C  C187  1  0.08740000  0.52430000  0.57810000  1.0 0.0203656548
C  C188  1  0.14330000  0.57640000  0.62980000  1.0 0.4128477422
C  C189  1  0.89440000  0.23660000  0.20200000  1.0 0.0375654683
C  C190  1  0.76270000  0.09220000  0.20120000  1.0 0.0203656548
C  C191  1  0.94340000  0.19570000  0.20210000  1.0 -0.104506247
C  C192  1  0.80840000  0.04570000  0.20220000  1.0 -0.088130134
C  C193  1  0.90480000  0.09880000  0.20970000  1.0 0.0375654683
C  C194  1  0.95620000  0.04540000  0.21220000  1.0 0.1435339399
C  C195  1  0.90260000  0.23780000  0.23000000  1.0 0.0139072719
C  C196  1  0.94850000  0.19450000  0.23730000  1.0 -0.088130134
C  C197  1  0.90560000  0.09670000  0.23790000  1.0 0.0289032697
C  C198  1  0.80920000  0.04990000  0.23650000  1.0 -0.0816265618
C  C199  1  0.76470000  0.09720000  0.23170000  1.0 0.0203656548
C  C200  1  0.95580000  0.04270000  0.24110000  1.0 0.1232855169
C  C201  1  0.93070000  0.50690000  0.43360000  1.0 0.0025225372
C  C202  1  0.91600000  0.43310000  0.39980000  1.0 0.0289032697
C  C203  1  0.95150000  0.37620000  0.41470000  1.0 -0.1712652158
C  C204  1  0.00160000  0.39290000  0.46340000  1.0 -0.0816265618
C  C205  1  0.01630000  0.46670000  0.49720000  1.0 0.0203656548
C  C206  1  0.98090000  0.52370000  0.48230000  1.0 0.0139072719
C  C207  1  0.99560000  0.59740000  0.51600000  1.0 -0.0589721414
C  C208  1  0.04570000  0.61420000  0.56480000  1.0 -0.1566610413
C  C209  1  0.08120000  0.55720000  0.57970000  1.0 0.0139072719
C  C210  1  0.06650000  0.48340000  0.54590000  1.0 -0.011782784
N  N1  1  0.18820000  0.54930000  0.76870000  1.0 -0.1798319726
N  N2  1  0.18710000  0.63680000  0.76820000  1.0 -0.1798319726
N  N3  1  0.11740000  0.55640000  0.84510000  1.0 -0.0403895786
N  N4  1  0.20060000  0.38710000  0.70490000  1.0 -0.0513892265
N  N5  1  0.09420000  0.05260000  0.70450000  1.0 -0.1511885545
N  N6  1  0.19270000  0.38480000  0.72730000  1.0 -0.0513892265
N  N7  1  0.09510000  0.04970000  0.73990000  1.0 -0.143767372
N  N8  1  0.36110000  0.81180000  0.76870000  1.0 -0.1798319726
N  N9  1  0.44970000  0.81290000  0.76820000  1.0 -0.1712652158
N  N10  1  0.43900000  0.88260000  0.84510000  1.0 -0.0317333343
N  N11  1  0.18650000  0.79940000  0.70490000  1.0 -0.0513892265
N  N12  1  0.95840000  0.90580000  0.70450000  1.0 -0.1511885545
N  N13  1  0.19210000  0.80730000  0.72730000  1.0 -0.0513892265
N  N14  1  0.95460000  0.90490000  0.73990000  1.0 -0.1511885545
N  N15  1  0.45070000  0.63890000  0.76870000  1.0 -0.1798319726
N  N16  1  0.36320000  0.55030000  0.76820000  1.0 -0.1712652158
N  N17  1  0.44360000  0.56100000  0.84510000  1.0 -0.0403895786
N  N18  1  0.61290000  0.81350000  0.70490000  1.0 -0.0589721414
N  N19  1  0.94740000  0.04160000  0.70450000  1.0 -0.1511885545
N  N20  1  0.61520000  0.80790000  0.72730000  1.0 -0.0513892265
N  N21  1  0.95030000  0.04540000  0.73990000  1.0 -0.1511885545
N  N22  1  0.63890000  0.45070000  0.26870000  1.0 -0.1798319726
N  N23  1  0.55030000  0.36320000  0.26820000  1.0 -0.1712652158
N  N24  1  0.56100000  0.44360000  0.34510000  1.0 -0.0317333343
N  N25  1  0.81350000  0.61290000  0.20490000  1.0 -0.0589721414
N  N26  1  0.04160000  0.94740000  0.20450000  1.0 -0.1511885545
N  N27  1  0.80790000  0.61520000  0.22730000  1.0 -0.0513892265
N  N28  1  0.04540000  0.95030000  0.23990000  1.0 -0.1511885545
N  N29  1  0.54930000  0.18820000  0.26870000  1.0 -0.1798319726
N  N30  1  0.63680000  0.18710000  0.26820000  1.0 -0.1712652158
N  N31  1  0.55640000  0.11740000  0.34510000  1.0 -0.0403895786
N  N32  1  0.38710000  0.20060000  0.20490000  1.0 -0.0513892265
N  N33  1  0.05260000  0.09420000  0.20450000  1.0 -0.1511885545
N  N34  1  0.38480000  0.19270000  0.22730000  1.0 -0.0513892265
N  N35  1  0.04970000  0.09510000  0.23990000  1.0 -0.1511885545
N  N36  1  0.81180000  0.36110000  0.26870000  1.0 -0.1798319726
N  N37  1  0.81290000  0.44970000  0.26820000  1.0 -0.1798319726
N  N38  1  0.88260000  0.43900000  0.34510000  1.0 -0.0317333343
N  N39  1  0.79940000  0.18650000  0.20490000  1.0 -0.0513892265
N  N40  1  0.90580000  0.95840000  0.20450000  1.0 -0.1511885545
N  N41  1  0.80730000  0.19210000  0.22730000  1.0 -0.0513892265
N  N42  1  0.90490000  0.95460000  0.23990000  1.0 -0.143767372
O  O1  1  0.83550000  0.48530000  0.14900000  1.0 -0.3817823581
O  O2  1  0.83270000  0.35180000  0.14780000  1.0 -0.4745491894
O  O3  1  0.64980000  0.16450000  0.14900000  1.0 -0.3817823581
O  O4  1  0.51910000  0.16730000  0.14780000  1.0 -0.4745491894
O  O5  1  0.51470000  0.35020000  0.14900000  1.0 -0.3817823581
O  O6  1  0.64820000  0.48090000  0.14780000  1.0 -0.4750444742
O  O7  1  0.35020000  0.51470000  0.64900000  1.0 -0.3817823581
O  O8  1  0.48090000  0.64820000  0.64780000  1.0 -0.4745491894
O  O9  1  0.48530000  0.83550000  0.64900000  1.0 -0.3817823581
O  O10  1  0.35180000  0.83270000  0.64780000  1.0 -0.4750444742
O  O11  1  0.16450000  0.64980000  0.64900000  1.0 -0.3817823581
O  O12  1  0.16730000  0.51910000  0.64780000  1.0 -0.4750444742
O  O13  1  0.33333333  0.66666667  0.68850000  1.0 -0.6122487637
O  O14  1  0.66666667  0.33333333  0.18850000  1.0 -0.6122487637
