# DDEC6 charges by PACMAN v1.1 (https://github.com/mtap-research/PACMAN-charge/)
data_ZOHFUZ_ion_pacman
_symmetry_space_group_name_H-M   'P 1'
_cell_length_a   18.85780000
_cell_length_b   18.85780000
_cell_length_c   18.85780000
_cell_angle_alpha   60.00000000
_cell_angle_beta   60.00000000
_cell_angle_gamma   60.00000000
_symmetry_Int_Tables_number   1
_chemical_formula_structural   Fe2H4C12ClO10
_chemical_formula_sum   'Fe12 H24 C72 Cl6 O60'
_cell_volume   4741.96209887
_cell_formula_units_Z   6
loop_
 _symmetry_equiv_pos_site_id
 _symmetry_equiv_pos_as_xyz
  1  'x, y, z'
loop_
 _atom_site_type_symbol
 _atom_site_label
 _atom_site_symmetry_multiplicity
 _atom_site_fract_x
 _atom_site_fract_y
 _atom_site_fract_z
 _atom_site_occupancy
 _atom_site_charge
Fe  Fe1  1  0.00000000  0.00000000  0.42126000  1.0 1.1781752698
Fe  Fe2  1  0.42126000  0.57874000  0.00000000  1.0 1.1781752698
Fe  Fe3  1  0.00000000  0.00000000  0.57874000  1.0 1.1781752698
Fe  Fe4  1  0.57874000  0.42126000  0.00000000  1.0 1.1781752698
Fe  Fe5  1  0.00000000  0.42126000  0.00000000  1.0 1.1781752698
Fe  Fe6  1  0.57874000  0.00000000  0.42126000  1.0 1.1781752698
Fe  Fe7  1  0.00000000  0.57874000  0.42126000  1.0 1.1781752698
Fe  Fe8  1  0.42126000  0.00000000  0.00000000  1.0 1.1781752698
Fe  Fe9  1  0.42126000  0.00000000  0.57874000  1.0 1.1781752698
Fe  Fe10  1  0.57874000  0.00000000  0.00000000  1.0 1.1781752698
Fe  Fe11  1  0.00000000  0.57874000  0.00000000  1.0 1.1781752698
Fe  Fe12  1  0.00000000  0.42126000  0.57874000  1.0 1.1781752698
H  H1  1  0.27700000  0.95800000  0.48800000  1.0 0.1440707624
H  H2  1  0.72300000  0.51200000  0.72300000  1.0 0.1440707624
H  H3  1  0.95800000  0.27700000  0.27700000  1.0 0.1440707624
H  H4  1  0.51200000  0.72300000  0.04200000  1.0 0.1440707624
H  H5  1  0.04200000  0.72300000  0.72300000  1.0 0.1440707624
H  H6  1  0.27700000  0.48800000  0.95800000  1.0 0.1440707624
H  H7  1  0.51200000  0.72300000  0.72300000  1.0 0.1440707624
H  H8  1  0.04200000  0.51200000  0.72300000  1.0 0.1440707624
H  H9  1  0.48800000  0.27700000  0.27700000  1.0 0.1440707624
H  H10  1  0.72300000  0.72300000  0.04200000  1.0 0.1440707624
H  H11  1  0.48800000  0.27700000  0.95800000  1.0 0.1440707624
H  H12  1  0.95800000  0.48800000  0.27700000  1.0 0.1440707624
H  H13  1  0.48800000  0.95800000  0.27700000  1.0 0.1440707624
H  H14  1  0.27700000  0.95800000  0.27700000  1.0 0.1440707624
H  H15  1  0.27700000  0.27700000  0.95800000  1.0 0.1440707624
H  H16  1  0.27700000  0.48800000  0.27700000  1.0 0.1440707624
H  H17  1  0.95800000  0.27700000  0.48800000  1.0 0.1440707624
H  H18  1  0.27700000  0.27700000  0.48800000  1.0 0.1440707624
H  H19  1  0.72300000  0.04200000  0.72300000  1.0 0.1440707624
H  H20  1  0.04200000  0.72300000  0.51200000  1.0 0.1440707624
H  H21  1  0.72300000  0.04200000  0.51200000  1.0 0.1440707624
H  H22  1  0.72300000  0.51200000  0.04200000  1.0 0.1440707624
H  H23  1  0.72300000  0.72300000  0.51200000  1.0 0.1440707624
H  H24  1  0.51200000  0.04200000  0.72300000  1.0 0.1440707624
C  C1  1  0.16950000  0.96950000  0.43050000  1.0 0.6036421127
C  C2  1  0.56950000  0.56950000  0.83050000  1.0 0.6036421127
C  C3  1  0.96950000  0.16950000  0.43050000  1.0 0.6036421127
C  C4  1  0.56950000  0.56950000  0.03050000  1.0 0.6036421127
C  C5  1  0.03050000  0.56950000  0.83050000  1.0 0.6036421127
C  C6  1  0.43050000  0.43050000  0.96950000  1.0 0.6036421127
C  C7  1  0.56950000  0.83050000  0.56950000  1.0 0.6036421127
C  C8  1  0.03050000  0.56950000  0.56950000  1.0 0.6036421127
C  C9  1  0.43050000  0.43050000  0.16950000  1.0 0.6036421127
C  C10  1  0.56950000  0.83050000  0.03050000  1.0 0.6036421127
C  C11  1  0.43050000  0.16950000  0.96950000  1.0 0.6036421127
C  C12  1  0.96950000  0.43050000  0.16950000  1.0 0.6036421127
C  C13  1  0.43050000  0.96950000  0.43050000  1.0 0.6036421127
C  C14  1  0.43050000  0.96950000  0.16950000  1.0 0.6036421127
C  C15  1  0.16950000  0.43050000  0.96950000  1.0 0.6036421127
C  C16  1  0.16950000  0.43050000  0.43050000  1.0 0.6036421127
C  C17  1  0.96950000  0.43050000  0.43050000  1.0 0.6036421127
C  C18  1  0.43050000  0.16950000  0.43050000  1.0 0.6036421127
C  C19  1  0.83050000  0.03050000  0.56950000  1.0 0.6036421127
C  C20  1  0.03050000  0.83050000  0.56950000  1.0 0.6036421127
C  C21  1  0.56950000  0.03050000  0.56950000  1.0 0.6036421127
C  C22  1  0.83050000  0.56950000  0.03050000  1.0 0.6036421127
C  C23  1  0.83050000  0.56950000  0.56950000  1.0 0.6036421127
C  C24  1  0.56950000  0.03050000  0.83050000  1.0 0.6036421127
C  C25  1  0.25580000  0.97180000  0.38620000  1.0 -0.0811592479
C  C26  1  0.61380000  0.61380000  0.74420000  1.0 -0.0811592479
C  C27  1  0.97180000  0.25580000  0.38620000  1.0 -0.0811592479
C  C28  1  0.61380000  0.61380000  0.02820000  1.0 -0.0811592479
C  C29  1  0.02820000  0.61380000  0.74420000  1.0 -0.0811592479
C  C30  1  0.38620000  0.38620000  0.97180000  1.0 -0.0811592479
C  C31  1  0.61380000  0.74420000  0.61380000  1.0 -0.0811592479
C  C32  1  0.02820000  0.61380000  0.61380000  1.0 -0.0811592479
C  C33  1  0.38620000  0.38620000  0.25580000  1.0 -0.0811592479
C  C34  1  0.61380000  0.74420000  0.02820000  1.0 -0.0811592479
C  C35  1  0.38620000  0.25580000  0.97180000  1.0 -0.0811592479
C  C36  1  0.97180000  0.38620000  0.25580000  1.0 -0.0811592479
C  C37  1  0.38620000  0.97180000  0.38620000  1.0 -0.0811592479
C  C38  1  0.38620000  0.97180000  0.25580000  1.0 -0.0811592479
C  C39  1  0.25580000  0.38620000  0.97180000  1.0 -0.0811592479
C  C40  1  0.25580000  0.38620000  0.38620000  1.0 -0.0811592479
C  C41  1  0.97180000  0.38620000  0.38620000  1.0 -0.0811592479
C  C42  1  0.38620000  0.25580000  0.38620000  1.0 -0.0811592479
C  C43  1  0.74420000  0.02820000  0.61380000  1.0 -0.0811592479
C  C44  1  0.02820000  0.74420000  0.61380000  1.0 -0.0811592479
C  C45  1  0.61380000  0.02820000  0.61380000  1.0 -0.0811592479
C  C46  1  0.74420000  0.61380000  0.02820000  1.0 -0.0811592479
C  C47  1  0.74420000  0.61380000  0.61380000  1.0 -0.0811592479
C  C48  1  0.61380000  0.02820000  0.74420000  1.0 -0.0811592479
C  C49  1  0.30250000  0.96590000  0.42910000  1.0 -0.0284450891
C  C50  1  0.69750000  0.57090000  0.69750000  1.0 -0.0284450891
C  C51  1  0.96590000  0.30250000  0.30250000  1.0 -0.0284450891
C  C52  1  0.57090000  0.69750000  0.03410000  1.0 -0.0284450891
C  C53  1  0.03410000  0.69750000  0.69750000  1.0 -0.0284450891
C  C54  1  0.30250000  0.42910000  0.96590000  1.0 -0.0284450891
C  C55  1  0.57090000  0.69750000  0.69750000  1.0 -0.0284450891
C  C56  1  0.03410000  0.57090000  0.69750000  1.0 -0.0284450891
C  C57  1  0.42910000  0.30250000  0.30250000  1.0 -0.0284450891
C  C58  1  0.69750000  0.69750000  0.03410000  1.0 -0.0284450891
C  C59  1  0.42910000  0.30250000  0.96590000  1.0 -0.0284450891
C  C60  1  0.96590000  0.42910000  0.30250000  1.0 -0.0284450891
C  C61  1  0.42910000  0.96590000  0.30250000  1.0 -0.0284450891
C  C62  1  0.30250000  0.96590000  0.30250000  1.0 -0.0284450891
C  C63  1  0.30250000  0.30250000  0.96590000  1.0 -0.0284450891
C  C64  1  0.30250000  0.42910000  0.30250000  1.0 -0.0284450891
C  C65  1  0.96590000  0.30250000  0.42910000  1.0 -0.0284450891
C  C66  1  0.30250000  0.30250000  0.42910000  1.0 -0.0284450891
C  C67  1  0.69750000  0.03410000  0.69750000  1.0 -0.0284450891
C  C68  1  0.03410000  0.69750000  0.57090000  1.0 -0.0284450891
C  C69  1  0.69750000  0.03410000  0.57090000  1.0 -0.0284450891
C  C70  1  0.69750000  0.57090000  0.03410000  1.0 -0.0284450891
C  C71  1  0.69750000  0.69750000  0.57090000  1.0 -0.0284450891
C  C72  1  0.57090000  0.03410000  0.69750000  1.0 -0.0284450891
Cl  Cl1  1  0.56600000  0.56600000  0.43400000  1.0 -0.1391515889
Cl  Cl2  1  0.43400000  0.43400000  0.56600000  1.0 -0.1918449186
Cl  Cl3  1  0.56600000  0.43400000  0.43400000  1.0 -0.1673054062
Cl  Cl4  1  0.56600000  0.43400000  0.56600000  1.0 -0.1673054062
Cl  Cl5  1  0.43400000  0.56600000  0.56600000  1.0 -0.1673054062
Cl  Cl6  1  0.43400000  0.56600000  0.43400000  1.0 -0.1673054062
O  O1  1  0.12800000  0.97860000  0.38660000  1.0 -0.5500998307
O  O2  1  0.49320000  0.61340000  0.87200000  1.0 -0.5500998307
O  O3  1  0.97860000  0.12800000  0.50680000  1.0 -0.5500998307
O  O4  1  0.61340000  0.49320000  0.02140000  1.0 -0.5500998307
O  O5  1  0.02140000  0.49320000  0.87200000  1.0 -0.5500998307
O  O6  1  0.50680000  0.38660000  0.97860000  1.0 -0.5500998307
O  O7  1  0.61340000  0.87200000  0.49320000  1.0 -0.5500998307
O  O8  1  0.02140000  0.61340000  0.49320000  1.0 -0.5500998307
O  O9  1  0.38660000  0.50680000  0.12800000  1.0 -0.5500998307
O  O10  1  0.49320000  0.87200000  0.02140000  1.0 -0.5500998307
O  O11  1  0.38660000  0.12800000  0.97860000  1.0 -0.5500998307
O  O12  1  0.97860000  0.38660000  0.12800000  1.0 -0.5500998307
O  O13  1  0.38660000  0.97860000  0.50680000  1.0 -0.5500998307
O  O14  1  0.50680000  0.97860000  0.12800000  1.0 -0.5500998307
O  O15  1  0.12800000  0.50680000  0.97860000  1.0 -0.5500998307
O  O16  1  0.12800000  0.38660000  0.50680000  1.0 -0.5500998307
O  O17  1  0.97860000  0.50680000  0.38660000  1.0 -0.5500998307
O  O18  1  0.50680000  0.12800000  0.38660000  1.0 -0.5500998307
O  O19  1  0.87200000  0.02140000  0.49320000  1.0 -0.5500998307
O  O20  1  0.02140000  0.87200000  0.61340000  1.0 -0.5500998307
O  O21  1  0.49320000  0.02140000  0.61340000  1.0 -0.5500998307
O  O22  1  0.87200000  0.61340000  0.02140000  1.0 -0.5500998307
O  O23  1  0.87200000  0.49320000  0.61340000  1.0 -0.5500998307
O  O24  1  0.61340000  0.02140000  0.87200000  1.0 -0.5500998307
O  O25  1  0.87200000  0.02140000  0.61340000  1.0 -0.5500998307
O  O26  1  0.50680000  0.38660000  0.12800000  1.0 -0.5500998307
O  O27  1  0.02140000  0.87200000  0.49320000  1.0 -0.5500998307
O  O28  1  0.38660000  0.50680000  0.97860000  1.0 -0.5500998307
O  O29  1  0.97860000  0.50680000  0.12800000  1.0 -0.5500998307
O  O30  1  0.49320000  0.61340000  0.02140000  1.0 -0.5500998307
O  O31  1  0.38660000  0.12800000  0.50680000  1.0 -0.5500998307
O  O32  1  0.97860000  0.38660000  0.50680000  1.0 -0.5500998307
O  O33  1  0.61340000  0.49320000  0.87200000  1.0 -0.5500998307
O  O34  1  0.50680000  0.12800000  0.97860000  1.0 -0.5500998307
O  O35  1  0.61340000  0.87200000  0.02140000  1.0 -0.5500998307
O  O36  1  0.02140000  0.61340000  0.87200000  1.0 -0.5500998307
O  O37  1  0.61340000  0.02140000  0.49320000  1.0 -0.5500998307
O  O38  1  0.49320000  0.02140000  0.87200000  1.0 -0.5500998307
O  O39  1  0.87200000  0.49320000  0.02140000  1.0 -0.5500998307
O  O40  1  0.87200000  0.61340000  0.49320000  1.0 -0.5500998307
O  O41  1  0.02140000  0.49320000  0.61340000  1.0 -0.5500998307
O  O42  1  0.49320000  0.87200000  0.61340000  1.0 -0.5500998307
O  O43  1  0.12800000  0.97860000  0.50680000  1.0 -0.5500998307
O  O44  1  0.97860000  0.12800000  0.38660000  1.0 -0.5500998307
O  O45  1  0.50680000  0.97860000  0.38660000  1.0 -0.5500998307
O  O46  1  0.12800000  0.38660000  0.97860000  1.0 -0.5500998307
O  O47  1  0.12800000  0.50680000  0.38660000  1.0 -0.5500998307
O  O48  1  0.38660000  0.97860000  0.12800000  1.0 -0.5500998307
O  O49  1  0.00000000  0.00000000  0.29760000  1.0 -0.1673054062
O  O50  1  0.29760000  0.70240000  0.00000000  1.0 -0.1673054062
O  O51  1  0.00000000  0.00000000  0.70240000  1.0 -0.1628616858
O  O52  1  0.70240000  0.29760000  0.00000000  1.0 -0.1673054062
O  O53  1  0.00000000  0.29760000  0.00000000  1.0 -0.1628616858
O  O54  1  0.70240000  0.00000000  0.29760000  1.0 -0.1673054062
O  O55  1  0.00000000  0.70240000  0.29760000  1.0 -0.1673054062
O  O56  1  0.29760000  0.00000000  0.00000000  1.0 -0.1918449186
O  O57  1  0.29760000  0.00000000  0.70240000  1.0 -0.1628616858
O  O58  1  0.70240000  0.00000000  0.00000000  1.0 -0.1817178659
O  O59  1  0.00000000  0.70240000  0.00000000  1.0 -0.1673054062
O  O60  1  0.00000000  0.29760000  0.70240000  1.0 -0.1817178659
