# DDEC6 charges by PACMAN v1.1 (https://github.com/mtap-research/PACMAN-charge/)
data_ZOJWAY_ASR_pacman
_symmetry_space_group_name_H-M   'P 1'
_cell_length_a   18.77740000
_cell_length_b   18.77740000
_cell_length_c   18.77740000
_cell_angle_alpha   59.00780000
_cell_angle_beta   59.00780000
_cell_angle_gamma   59.00780000
_symmetry_Int_Tables_number   1
_chemical_formula_structural   CuH14(C4O)8
_chemical_formula_sum   'Cu6 H84 C192 O48'
_cell_volume   4575.61743208
_cell_formula_units_Z   6
loop_
 _symmetry_equiv_pos_site_id
 _symmetry_equiv_pos_as_xyz
  1  'x, y, z'
loop_
 _atom_site_type_symbol
 _atom_site_label
 _atom_site_symmetry_multiplicity
 _atom_site_fract_x
 _atom_site_fract_y
 _atom_site_fract_z
 _atom_site_occupancy
 _atom_site_charge
Cu  Cu1  1  0.49968000  0.07164000  0.49968000  1.0 0.8682589971
Cu  Cu2  1  0.07164000  0.49968000  0.49968000  1.0 0.8682589971
Cu  Cu3  1  0.49968000  0.49968000  0.07164000  1.0 0.8682589971
Cu  Cu4  1  0.92836000  0.50032000  0.50032000  1.0 0.8682589971
Cu  Cu5  1  0.50032000  0.92836000  0.50032000  1.0 0.8682589971
Cu  Cu6  1  0.50032000  0.50032000  0.92836000  1.0 0.8682589971
H  H1  1  0.44810000  0.78190000  0.78190000  1.0 0.1321097884
H  H2  1  0.78190000  0.78190000  0.44810000  1.0 0.1321097884
H  H3  1  0.78190000  0.44810000  0.78190000  1.0 0.1321097884
H  H4  1  0.21810000  0.55190000  0.21810000  1.0 0.1321097884
H  H5  1  0.21810000  0.21810000  0.55190000  1.0 0.1321097884
H  H6  1  0.55190000  0.21810000  0.21810000  1.0 0.1321097884
H  H7  1  0.48560000  0.98300000  0.76290000  1.0 0.1377040298
H  H8  1  0.98300000  0.76290000  0.48560000  1.0 0.1377040298
H  H9  1  0.76290000  0.48560000  0.98300000  1.0 0.1377040298
H  H10  1  0.01700000  0.51440000  0.23710000  1.0 0.1377040298
H  H11  1  0.23710000  0.01700000  0.51440000  1.0 0.1377040298
H  H12  1  0.51440000  0.23710000  0.01700000  1.0 0.1377040298
H  H13  1  0.51440000  0.01700000  0.23710000  1.0 0.1377040298
H  H14  1  0.01700000  0.23710000  0.51440000  1.0 0.1377040298
H  H15  1  0.23710000  0.51440000  0.01700000  1.0 0.1377040298
H  H16  1  0.98300000  0.48560000  0.76290000  1.0 0.1377040298
H  H17  1  0.76290000  0.98300000  0.48560000  1.0 0.1377040298
H  H18  1  0.48560000  0.76290000  0.98300000  1.0 0.1377040298
H  H19  1  0.63170000  0.83740000  0.83740000  1.0 0.1377040298
H  H20  1  0.83740000  0.83740000  0.63170000  1.0 0.1377040298
H  H21  1  0.83740000  0.63170000  0.83740000  1.0 0.1377040298
H  H22  1  0.16260000  0.36830000  0.16260000  1.0 0.1377040298
H  H23  1  0.16260000  0.16260000  0.36830000  1.0 0.1377040298
H  H24  1  0.36830000  0.16260000  0.16260000  1.0 0.1377040298
H  H25  1  0.76940000  0.81910000  0.81910000  1.0 0.0909793245
H  H26  1  0.81910000  0.81910000  0.76940000  1.0 0.0909793245
H  H27  1  0.81910000  0.76940000  0.81910000  1.0 0.0909793245
H  H28  1  0.18090000  0.23060000  0.18090000  1.0 0.0909793245
H  H29  1  0.18090000  0.18090000  0.23060000  1.0 0.0909793245
H  H30  1  0.23060000  0.18090000  0.18090000  1.0 0.0909793245
H  H31  1  0.78600000  0.88370000  0.88370000  1.0 0.1178935834
H  H32  1  0.88370000  0.88370000  0.78600000  1.0 0.1178935834
H  H33  1  0.88370000  0.78600000  0.88370000  1.0 0.1178935834
H  H34  1  0.11630000  0.21400000  0.11630000  1.0 0.1178935834
H  H35  1  0.11630000  0.11630000  0.21400000  1.0 0.1178935834
H  H36  1  0.21400000  0.11630000  0.11630000  1.0 0.1178935834
H  H37  1  0.66480000  0.96680000  0.96680000  1.0 0.0909793245
H  H38  1  0.96680000  0.96680000  0.66480000  1.0 0.0909793245
H  H39  1  0.96680000  0.66480000  0.96680000  1.0 0.0909793245
H  H40  1  0.03320000  0.33520000  0.03320000  1.0 0.0909793245
H  H41  1  0.03320000  0.03320000  0.33520000  1.0 0.0909793245
H  H42  1  0.33520000  0.03320000  0.03320000  1.0 0.0909793245
H  H43  1  0.31650000  0.96140000  0.96140000  1.0 0.1108446114
H  H44  1  0.96140000  0.96140000  0.31650000  1.0 0.1108446114
H  H45  1  0.96140000  0.31650000  0.96140000  1.0 0.1108446114
H  H46  1  0.03860000  0.68350000  0.03860000  1.0 0.1108446114
H  H47  1  0.03860000  0.03860000  0.68350000  1.0 0.1108446114
H  H48  1  0.68350000  0.03860000  0.03860000  1.0 0.1108446114
H  H49  1  0.19160000  0.04500000  0.04500000  1.0 0.1321097884
H  H50  1  0.04500000  0.04500000  0.19160000  1.0 0.1321097884
H  H51  1  0.04500000  0.19160000  0.04500000  1.0 0.1321097884
H  H52  1  0.95500000  0.80840000  0.95500000  1.0 0.1321097884
H  H53  1  0.95500000  0.95500000  0.80840000  1.0 0.1321097884
H  H54  1  0.80840000  0.95500000  0.95500000  1.0 0.1321097884
H  H55  1  0.20740000  0.11000000  0.11000000  1.0 0.1108446114
H  H56  1  0.11000000  0.11000000  0.20740000  1.0 0.1108446114
H  H57  1  0.11000000  0.20740000  0.11000000  1.0 0.1108446114
H  H58  1  0.89000000  0.79260000  0.89000000  1.0 0.1108446114
H  H59  1  0.89000000  0.89000000  0.79260000  1.0 0.1108446114
H  H60  1  0.79260000  0.89000000  0.89000000  1.0 0.1108446114
H  H61  1  0.34680000  0.09160000  0.09160000  1.0 0.0909793245
H  H62  1  0.09160000  0.09160000  0.34680000  1.0 0.0909793245
H  H63  1  0.09160000  0.34680000  0.09160000  1.0 0.0909793245
H  H64  1  0.90840000  0.65320000  0.90840000  1.0 0.0909793245
H  H65  1  0.90840000  0.90840000  0.65320000  1.0 0.0909793245
H  H66  1  0.65320000  0.90840000  0.90840000  1.0 0.0909793245
H  H67  1  0.53680000  0.01400000  0.22970000  1.0 0.1321097884
H  H68  1  0.01400000  0.22970000  0.53680000  1.0 0.1321097884
H  H69  1  0.22970000  0.53680000  0.01400000  1.0 0.1321097884
H  H70  1  0.98600000  0.46320000  0.77030000  1.0 0.1321097884
H  H71  1  0.77030000  0.98600000  0.46320000  1.0 0.1321097884
H  H72  1  0.46320000  0.77030000  0.98600000  1.0 0.1321097884
H  H73  1  0.46320000  0.98600000  0.77030000  1.0 0.1321097884
H  H74  1  0.98600000  0.77030000  0.46320000  1.0 0.1321097884
H  H75  1  0.77030000  0.46320000  0.98600000  1.0 0.1321097884
H  H76  1  0.01400000  0.53680000  0.22970000  1.0 0.1321097884
H  H77  1  0.22970000  0.01400000  0.53680000  1.0 0.1321097884
H  H78  1  0.53680000  0.22970000  0.01400000  1.0 0.1321097884
H  H79  1  0.52360000  0.23270000  0.23270000  1.0 0.1321097884
H  H80  1  0.23270000  0.23270000  0.52360000  1.0 0.1321097884
H  H81  1  0.23270000  0.52360000  0.23270000  1.0 0.1321097884
H  H82  1  0.76730000  0.47640000  0.76730000  1.0 0.1321097884
H  H83  1  0.76730000  0.76730000  0.47640000  1.0 0.1321097884
H  H84  1  0.47640000  0.76730000  0.76730000  1.0 0.1321097884
C  C1  1  0.47320000  0.92410000  0.66260000  1.0 0.5414667222
C  C2  1  0.92410000  0.66260000  0.47320000  1.0 0.5414667222
C  C3  1  0.66260000  0.47320000  0.92410000  1.0 0.5414667222
C  C4  1  0.07590000  0.52680000  0.33740000  1.0 0.5414667222
C  C5  1  0.33740000  0.07590000  0.52680000  1.0 0.5414667222
C  C6  1  0.52680000  0.33740000  0.07590000  1.0 0.5414667222
C  C7  1  0.52680000  0.07590000  0.33740000  1.0 0.5414667222
C  C8  1  0.07590000  0.33740000  0.52680000  1.0 0.5414667222
C  C9  1  0.33740000  0.52680000  0.07590000  1.0 0.5414667222
C  C10  1  0.92410000  0.47320000  0.66260000  1.0 0.5414667222
C  C11  1  0.66260000  0.92410000  0.47320000  1.0 0.5414667222
C  C12  1  0.47320000  0.66260000  0.92410000  1.0 0.5414667222
C  C13  1  0.46710000  0.80240000  0.80240000  1.0 -0.0810236479
C  C14  1  0.80240000  0.80240000  0.46710000  1.0 -0.0810236479
C  C15  1  0.80240000  0.46710000  0.80240000  1.0 -0.0810236479
C  C16  1  0.19760000  0.53290000  0.19760000  1.0 -0.0810236479
C  C17  1  0.19760000  0.19760000  0.53290000  1.0 -0.0810236479
C  C18  1  0.53290000  0.19760000  0.19760000  1.0 -0.0810236479
C  C19  1  0.47260000  0.88680000  0.75450000  1.0 -0.0034629528
C  C20  1  0.88680000  0.75450000  0.47260000  1.0 -0.0034629528
C  C21  1  0.75450000  0.47260000  0.88680000  1.0 -0.0034629528
C  C22  1  0.11320000  0.52740000  0.24550000  1.0 -0.0034629528
C  C23  1  0.24550000  0.11320000  0.52740000  1.0 -0.0034629528
C  C24  1  0.52740000  0.24550000  0.11320000  1.0 -0.0034629528
C  C25  1  0.52740000  0.11320000  0.24550000  1.0 -0.0034629528
C  C26  1  0.11320000  0.24550000  0.52740000  1.0 -0.0034629528
C  C27  1  0.24550000  0.52740000  0.11320000  1.0 -0.0034629528
C  C28  1  0.88680000  0.47260000  0.75450000  1.0 -0.0034629528
C  C29  1  0.75450000  0.88680000  0.47260000  1.0 -0.0034629528
C  C30  1  0.47260000  0.75450000  0.88680000  1.0 -0.0034629528
C  C31  1  0.47660000  0.92880000  0.79460000  1.0 -0.1073531963
C  C32  1  0.92880000  0.79460000  0.47660000  1.0 -0.1073531963
C  C33  1  0.79460000  0.47660000  0.92880000  1.0 -0.1073531963
C  C34  1  0.07120000  0.52340000  0.20540000  1.0 -0.1073531963
C  C35  1  0.20540000  0.07120000  0.52340000  1.0 -0.1073531963
C  C36  1  0.52340000  0.20540000  0.07120000  1.0 -0.1073531963
C  C37  1  0.52340000  0.07120000  0.20540000  1.0 -0.1073531963
C  C38  1  0.07120000  0.20540000  0.52340000  1.0 -0.1073531963
C  C39  1  0.20540000  0.52340000  0.07120000  1.0 -0.1073531963
C  C40  1  0.92880000  0.47660000  0.79460000  1.0 -0.1073531963
C  C41  1  0.79460000  0.92880000  0.47660000  1.0 -0.1073531963
C  C42  1  0.47660000  0.79460000  0.92880000  1.0 -0.1073531963
C  C43  1  0.47980000  0.92610000  0.92610000  1.0 0.0467062604
C  C44  1  0.92610000  0.92610000  0.47980000  1.0 0.0467062604
C  C45  1  0.92610000  0.47980000  0.92610000  1.0 0.0467062604
C  C46  1  0.07390000  0.52020000  0.07390000  1.0 0.0467062604
C  C47  1  0.07390000  0.07390000  0.52020000  1.0 0.0467062604
C  C48  1  0.52020000  0.07390000  0.07390000  1.0 0.0467062604
C  C49  1  0.40540000  0.97680000  0.97680000  1.0 0.0030484995
C  C50  1  0.97680000  0.97680000  0.40540000  1.0 0.0030484995
C  C51  1  0.97680000  0.40540000  0.97680000  1.0 0.0030484995
C  C52  1  0.02320000  0.59460000  0.02320000  1.0 0.007728674
C  C53  1  0.02320000  0.02320000  0.59460000  1.0 0.007728674
C  C54  1  0.59460000  0.02320000  0.02320000  1.0 0.007728674
C  C55  1  0.41570000  0.01530000  0.01530000  1.0 0.007728674
C  C56  1  0.01530000  0.01530000  0.41570000  1.0 0.007728674
C  C57  1  0.01530000  0.41570000  0.01530000  1.0 0.007728674
C  C58  1  0.98470000  0.58430000  0.98470000  1.0 0.007728674
C  C59  1  0.98470000  0.98470000  0.58430000  1.0 0.007728674
C  C60  1  0.58430000  0.98470000  0.98470000  1.0 0.007728674
C  C61  1  0.50040000  0.00340000  0.00340000  1.0 -0.0810236479
C  C62  1  0.00340000  0.00340000  0.50040000  1.0 -0.0810236479
C  C63  1  0.00340000  0.50040000  0.00340000  1.0 -0.0810236479
C  C64  1  0.99660000  0.49960000  0.99660000  1.0 -0.0810236479
C  C65  1  0.99660000  0.99660000  0.49960000  1.0 -0.0810236479
C  C66  1  0.49960000  0.99660000  0.99660000  1.0 -0.0810236479
C  C67  1  0.57470000  0.95290000  0.95290000  1.0 0.0030484995
C  C68  1  0.95290000  0.95290000  0.57470000  1.0 0.0030484995
C  C69  1  0.95290000  0.57470000  0.95290000  1.0 0.0030484995
C  C70  1  0.04710000  0.42530000  0.04710000  1.0 0.0030484995
C  C71  1  0.04710000  0.04710000  0.42530000  1.0 0.0030484995
C  C72  1  0.42530000  0.04710000  0.04710000  1.0 0.0030484995
C  C73  1  0.56330000  0.91480000  0.91480000  1.0 0.0030484995
C  C74  1  0.91480000  0.91480000  0.56330000  1.0 0.0030484995
C  C75  1  0.91480000  0.56330000  0.91480000  1.0 0.0030484995
C  C76  1  0.08520000  0.43670000  0.08520000  1.0 0.0030484995
C  C77  1  0.08520000  0.08520000  0.43670000  1.0 0.0030484995
C  C78  1  0.43670000  0.08520000  0.08520000  1.0 0.0030484995
C  C79  1  0.47520000  0.88190000  0.88190000  1.0 0.0735839375
C  C80  1  0.88190000  0.88190000  0.47520000  1.0 0.0735839375
C  C81  1  0.88190000  0.47520000  0.88190000  1.0 0.0735839375
C  C82  1  0.11810000  0.52480000  0.11810000  1.0 0.0735839375
C  C83  1  0.11810000  0.11810000  0.52480000  1.0 0.0735839375
C  C84  1  0.52480000  0.11810000  0.11810000  1.0 0.0735839375
C  C85  1  0.63550000  0.86460000  0.86460000  1.0 -0.1780591987
C  C86  1  0.86460000  0.86460000  0.63550000  1.0 -0.1780591987
C  C87  1  0.86460000  0.63550000  0.86460000  1.0 -0.1780591987
C  C88  1  0.13540000  0.36450000  0.13540000  1.0 -0.1780591987
C  C89  1  0.13540000  0.13540000  0.36450000  1.0 -0.1780591987
C  C90  1  0.36450000  0.13540000  0.13540000  1.0 -0.1780591987
C  C91  1  0.71980000  0.85200000  0.85200000  1.0 -0.0932038582
C  C92  1  0.85200000  0.85200000  0.71980000  1.0 -0.0932038582
C  C93  1  0.85200000  0.71980000  0.85200000  1.0 -0.0932038582
C  C94  1  0.14800000  0.28020000  0.14800000  1.0 -0.0932038582
C  C95  1  0.14800000  0.14800000  0.28020000  1.0 -0.0932038582
C  C96  1  0.28020000  0.14800000  0.14800000  1.0 -0.0932038582
C  C97  1  0.73070000  0.89020000  0.89020000  1.0 -0.1044493958
C  C98  1  0.89020000  0.89020000  0.73070000  1.0 -0.1044493958
C  C99  1  0.89020000  0.73070000  0.89020000  1.0 -0.1044493958
C  C100  1  0.10980000  0.26930000  0.10980000  1.0 -0.1073531963
C  C101  1  0.10980000  0.10980000  0.26930000  1.0 -0.1073531963
C  C102  1  0.26930000  0.10980000  0.10980000  1.0 -0.1073531963
C  C103  1  0.65940000  0.94040000  0.94040000  1.0 -0.1073531963
C  C104  1  0.94040000  0.94040000  0.65940000  1.0 -0.1073531963
C  C105  1  0.94040000  0.65940000  0.94040000  1.0 -0.1073531963
C  C106  1  0.05960000  0.34060000  0.05960000  1.0 -0.1073531963
C  C107  1  0.05960000  0.05960000  0.34060000  1.0 -0.1073531963
C  C108  1  0.34060000  0.05960000  0.05960000  1.0 -0.1073531963
C  C109  1  0.32160000  0.98810000  0.98810000  1.0 -0.1714464483
C  C110  1  0.98810000  0.98810000  0.32160000  1.0 -0.1714464483
C  C111  1  0.98810000  0.32160000  0.98810000  1.0 -0.1714464483
C  C112  1  0.01190000  0.67840000  0.01190000  1.0 -0.1714464483
C  C113  1  0.01190000  0.01190000  0.67840000  1.0 -0.1714464483
C  C114  1  0.67840000  0.01190000  0.01190000  1.0 -0.1714464483
C  C115  1  0.24720000  0.03820000  0.03820000  1.0 -0.1289059079
C  C116  1  0.03820000  0.03820000  0.24720000  1.0 -0.1289059079
C  C117  1  0.03820000  0.24720000  0.03820000  1.0 -0.1289059079
C  C118  1  0.96180000  0.75280000  0.96180000  1.0 -0.1289059079
C  C119  1  0.96180000  0.96180000  0.75280000  1.0 -0.1289059079
C  C120  1  0.75280000  0.96180000  0.96180000  1.0 -0.1289059079
C  C121  1  0.25760000  0.07650000  0.07650000  1.0 -0.1073531963
C  C122  1  0.07650000  0.07650000  0.25760000  1.0 -0.1073531963
C  C123  1  0.07650000  0.25760000  0.07650000  1.0 -0.1073531963
C  C124  1  0.92350000  0.74240000  0.92350000  1.0 -0.1044493958
C  C125  1  0.92350000  0.92350000  0.74240000  1.0 -0.1073531963
C  C126  1  0.74240000  0.92350000  0.92350000  1.0 -0.1044493958
C  C127  1  0.34090000  0.06530000  0.06530000  1.0 -0.1044493958
C  C128  1  0.06530000  0.06530000  0.34090000  1.0 -0.1044493958
C  C129  1  0.06530000  0.34090000  0.06530000  1.0 -0.1044493958
C  C130  1  0.93470000  0.65910000  0.93470000  1.0 -0.1073531963
C  C131  1  0.93470000  0.93470000  0.65910000  1.0 -0.1073531963
C  C132  1  0.65910000  0.93470000  0.93470000  1.0 -0.1073531963
C  C133  1  0.51300000  0.04450000  0.04450000  1.0 0.0243189716
C  C134  1  0.04450000  0.04450000  0.51300000  1.0 0.0243189716
C  C135  1  0.04450000  0.51300000  0.04450000  1.0 0.0243189716
C  C136  1  0.95550000  0.48700000  0.95550000  1.0 0.0243189716
C  C137  1  0.95550000  0.95550000  0.48700000  1.0 0.0252390106
C  C138  1  0.48700000  0.95550000  0.95550000  1.0 0.0243189716
C  C139  1  0.52290000  0.07450000  0.07450000  1.0 0.043134223
C  C140  1  0.07450000  0.07450000  0.52290000  1.0 0.043134223
C  C141  1  0.07450000  0.52290000  0.07450000  1.0 0.043134223
C  C142  1  0.92550000  0.47710000  0.92550000  1.0 0.043134223
C  C143  1  0.92550000  0.92550000  0.47710000  1.0 0.043134223
C  C144  1  0.47710000  0.92550000  0.92550000  1.0 0.043134223
C  C145  1  0.53630000  0.11430000  0.11430000  1.0 0.0751754932
C  C146  1  0.11430000  0.11430000  0.53630000  1.0 0.0751754932
C  C147  1  0.11430000  0.53630000  0.11430000  1.0 0.0751754932
C  C148  1  0.88570000  0.46370000  0.88570000  1.0 0.0751754932
C  C149  1  0.88570000  0.88570000  0.46370000  1.0 0.0751754932
C  C150  1  0.46370000  0.88570000  0.88570000  1.0 0.0751754932
C  C151  1  0.53620000  0.07200000  0.20080000  1.0 -0.1164330624
C  C152  1  0.07200000  0.20080000  0.53620000  1.0 -0.1164330624
C  C153  1  0.20080000  0.53620000  0.07200000  1.0 -0.1164330624
C  C154  1  0.92800000  0.46380000  0.79920000  1.0 -0.1164330624
C  C155  1  0.79920000  0.92800000  0.46380000  1.0 -0.1164330624
C  C156  1  0.46380000  0.79920000  0.92800000  1.0 -0.1164330624
C  C157  1  0.46380000  0.92800000  0.79920000  1.0 -0.1164330624
C  C158  1  0.92800000  0.79920000  0.46380000  1.0 -0.1164330624
C  C159  1  0.79920000  0.46380000  0.92800000  1.0 -0.1164330624
C  C160  1  0.07200000  0.53620000  0.20080000  1.0 -0.1164330624
C  C161  1  0.20080000  0.07200000  0.53620000  1.0 -0.1164330624
C  C162  1  0.53620000  0.20080000  0.07200000  1.0 -0.1164330624
C  C163  1  0.53320000  0.11430000  0.24520000  1.0 -0.014169934
C  C164  1  0.11430000  0.24520000  0.53320000  1.0 -0.014169934
C  C165  1  0.24520000  0.53320000  0.11430000  1.0 -0.014169934
C  C166  1  0.88570000  0.46680000  0.75480000  1.0 -0.014169934
C  C167  1  0.75480000  0.88570000  0.46680000  1.0 -0.014169934
C  C168  1  0.46680000  0.75480000  0.88570000  1.0 -0.014169934
C  C169  1  0.46680000  0.88570000  0.75480000  1.0 -0.014169934
C  C170  1  0.88570000  0.75480000  0.46680000  1.0 -0.014169934
C  C171  1  0.75480000  0.46680000  0.88570000  1.0 -0.014169934
C  C172  1  0.11430000  0.53320000  0.24520000  1.0 -0.014169934
C  C173  1  0.24520000  0.11430000  0.53320000  1.0 -0.014169934
C  C174  1  0.53320000  0.24520000  0.11430000  1.0 -0.014169934
C  C175  1  0.53160000  0.20170000  0.20170000  1.0 -0.0582633646
C  C176  1  0.20170000  0.20170000  0.53160000  1.0 -0.0582633646
C  C177  1  0.20170000  0.53160000  0.20170000  1.0 -0.0582633646
C  C178  1  0.79830000  0.46840000  0.79830000  1.0 -0.0582633646
C  C179  1  0.79830000  0.79830000  0.46840000  1.0 -0.0582633646
C  C180  1  0.46840000  0.79830000  0.79830000  1.0 -0.0582633646
C  C181  1  0.51798000  0.07048000  0.34288000  1.0 0.5482230626
C  C182  1  0.07048000  0.34288000  0.51798000  1.0 0.5482230626
C  C183  1  0.34288000  0.51798000  0.07048000  1.0 0.5482230626
C  C184  1  0.92952000  0.48202000  0.65712000  1.0 0.5482230626
C  C185  1  0.65712000  0.92952000  0.48202000  1.0 0.5482230626
C  C186  1  0.48202000  0.65712000  0.92952000  1.0 0.5482230626
C  C187  1  0.48202000  0.92952000  0.65712000  1.0 0.5482230626
C  C188  1  0.92952000  0.65712000  0.48202000  1.0 0.5482230626
C  C189  1  0.65712000  0.48202000  0.92952000  1.0 0.5482230626
C  C190  1  0.07048000  0.51798000  0.34288000  1.0 0.5482230626
C  C191  1  0.34288000  0.07048000  0.51798000  1.0 0.5482230626
C  C192  1  0.51798000  0.34288000  0.07048000  1.0 0.5482230626
O  O1  1  0.47470000  0.00300000  0.62450000  1.0 -0.3948546208
O  O2  1  0.00300000  0.62450000  0.47470000  1.0 -0.3952866353
O  O3  1  0.62450000  0.47470000  0.00300000  1.0 -0.3948546208
O  O4  1  0.99700000  0.52530000  0.37550000  1.0 -0.3948546208
O  O5  1  0.37550000  0.99700000  0.52530000  1.0 -0.3952866353
O  O6  1  0.52530000  0.37550000  0.99700000  1.0 -0.3948546208
O  O7  1  0.52530000  0.99700000  0.37550000  1.0 -0.3952866353
O  O8  1  0.99700000  0.37550000  0.52530000  1.0 -0.3948546208
O  O9  1  0.37550000  0.52530000  0.99700000  1.0 -0.3948546208
O  O10  1  0.00300000  0.47470000  0.62450000  1.0 -0.3952866353
O  O11  1  0.62450000  0.00300000  0.47470000  1.0 -0.3948546208
O  O12  1  0.47470000  0.62450000  0.00300000  1.0 -0.3948546208
O  O13  1  0.47540000  0.88510000  0.62290000  1.0 -0.4460695244
O  O14  1  0.88510000  0.62290000  0.47540000  1.0 -0.4460695244
O  O15  1  0.62290000  0.47540000  0.88510000  1.0 -0.4460695244
O  O16  1  0.11490000  0.52460000  0.37710000  1.0 -0.4460695244
O  O17  1  0.37710000  0.11490000  0.52460000  1.0 -0.4460695244
O  O18  1  0.52460000  0.37710000  0.11490000  1.0 -0.4460695244
O  O19  1  0.52460000  0.11490000  0.37710000  1.0 -0.4460695244
O  O20  1  0.11490000  0.37710000  0.52460000  1.0 -0.4460695244
O  O21  1  0.37710000  0.52460000  0.11490000  1.0 -0.4460695244
O  O22  1  0.88510000  0.47540000  0.62290000  1.0 -0.4460695244
O  O23  1  0.62290000  0.88510000  0.47540000  1.0 -0.4460695244
O  O24  1  0.47540000  0.62290000  0.88510000  1.0 -0.4460695244
O  O25  1  0.51420000  0.99280000  0.37640000  1.0 -0.4436858453
O  O26  1  0.99280000  0.37640000  0.51420000  1.0 -0.4436858453
O  O27  1  0.37640000  0.51420000  0.99280000  1.0 -0.4436858453
O  O28  1  0.00720000  0.48580000  0.62360000  1.0 -0.4436858453
O  O29  1  0.62360000  0.00720000  0.48580000  1.0 -0.4436858453
O  O30  1  0.48580000  0.62360000  0.00720000  1.0 -0.4436858453
O  O31  1  0.48580000  0.00720000  0.62360000  1.0 -0.4436858453
O  O32  1  0.00720000  0.62360000  0.48580000  1.0 -0.4436858453
O  O33  1  0.62360000  0.48580000  0.00720000  1.0 -0.4436858453
O  O34  1  0.99280000  0.51420000  0.37640000  1.0 -0.4436858453
O  O35  1  0.37640000  0.99280000  0.51420000  1.0 -0.4436858453
O  O36  1  0.51420000  0.37640000  0.99280000  1.0 -0.4436858453
O  O37  1  0.51530000  0.11430000  0.37500000  1.0 -0.3731467284
O  O38  1  0.11430000  0.37500000  0.51530000  1.0 -0.3731467284
O  O39  1  0.37500000  0.51530000  0.11430000  1.0 -0.3731467284
O  O40  1  0.88570000  0.48470000  0.62500000  1.0 -0.3731467284
O  O41  1  0.62500000  0.88570000  0.48470000  1.0 -0.3731467284
O  O42  1  0.48470000  0.62500000  0.88570000  1.0 -0.3731467284
O  O43  1  0.48470000  0.88570000  0.62500000  1.0 -0.3731467284
O  O44  1  0.88570000  0.62500000  0.48470000  1.0 -0.3731467284
O  O45  1  0.62500000  0.48470000  0.88570000  1.0 -0.3731467284
O  O46  1  0.11430000  0.51530000  0.37500000  1.0 -0.3731467284
O  O47  1  0.37500000  0.11430000  0.51530000  1.0 -0.3731467284
O  O48  1  0.51530000  0.37500000  0.11430000  1.0 -0.3731467284
