# DDEC6 charges by PACMAN v1.1 (https://github.com/mtap-research/PACMAN-charge/)
data_ZOMBAH_ASR_pacman
_symmetry_space_group_name_H-M   'P 1'
_cell_length_a   11.50570000
_cell_length_b   11.50570000
_cell_length_c   6.59990000
_cell_angle_alpha   82.83000000
_cell_angle_beta   97.17000000
_cell_angle_gamma   103.03000000
_symmetry_Int_Tables_number   1
_chemical_formula_structural   Co3H16C26(NO5)2
_chemical_formula_sum   'Co3 H16 C26 N2 O10'
_cell_volume   840.31579432
_cell_formula_units_Z   1
loop_
 _symmetry_equiv_pos_site_id
 _symmetry_equiv_pos_as_xyz
  1  'x, y, z'
loop_
 _atom_site_type_symbol
 _atom_site_label
 _atom_site_symmetry_multiplicity
 _atom_site_fract_x
 _atom_site_fract_y
 _atom_site_fract_z
 _atom_site_occupancy
 _atom_site_charge
Co  Co1  1  0.10549000  0.10549000  0.00000000  1.0 1.0481212817
Co  Co2  1  0.89451000  0.89451000  0.00000000  1.0 1.0481212817
Co  Co3  1  0.00000000  0.00000000  0.50000000  1.0 1.0995006048
H  H1  1  0.55070000  0.89290000  0.80910000  1.0 0.1219404981
H  H2  1  0.38630000  0.89390000  0.02130000  1.0 0.1219404981
H  H3  1  0.34960000  0.89380000  0.70380000  1.0 0.0910390419
H  H4  1  0.89290000  0.55070000  0.19090000  1.0 0.1219404981
H  H5  1  0.89390000  0.38630000  0.97870000  1.0 0.1219404981
H  H6  1  0.89380000  0.34960000  0.29620000  1.0 0.0910390419
H  H7  1  0.44930000  0.10710000  0.19090000  1.0 0.1219404981
H  H8  1  0.61370000  0.10610000  0.97870000  1.0 0.1219404981
H  H9  1  0.65040000  0.10620000  0.29620000  1.0 0.0910390419
H  H10  1  0.10710000  0.44930000  0.80910000  1.0 0.1219404981
H  H11  1  0.10610000  0.61370000  0.02130000  1.0 0.1219404981
H  H12  1  0.10620000  0.65040000  0.70380000  1.0 0.0910390419
H  H13  1  0.07680000  0.92320000  0.79590000  1.0 0.394778856
H  H14  1  0.22090000  0.77910000  0.17320000  1.0 0.1335084223
H  H15  1  0.92320000  0.07680000  0.20410000  1.0 0.394778856
H  H16  1  0.77910000  0.22090000  0.82680000  1.0 0.1335084223
C  C1  1  0.37990000  0.00190000  0.43660000  1.0 -0.0208063215
C  C2  1  0.25295000  0.01225000  0.36490000  1.0 0.5790044152
C  C3  1  0.52990000  0.93650000  0.68280000  1.0 -0.1516009412
C  C4  1  0.41020000  0.93700000  0.62120000  1.0 -0.0511923387
C  C5  1  0.32270000  0.84390000  0.94640000  1.0 -0.1426576293
C  C6  1  0.31570000  0.84310000  0.73500000  1.0 0.0741295226
C  C7  1  0.00190000  0.37990000  0.56340000  1.0 -0.0208063215
C  C8  1  0.01225000  0.25295000  0.63510000  1.0 0.5790044152
C  C9  1  0.93650000  0.52990000  0.31720000  1.0 -0.1516009412
C  C10  1  0.93700000  0.41020000  0.37880000  1.0 -0.0511923387
C  C11  1  0.84390000  0.32270000  0.05360000  1.0 -0.1426576293
C  C12  1  0.84310000  0.31570000  0.26500000  1.0 0.0741295226
C  C13  1  0.62010000  0.99810000  0.56340000  1.0 -0.0208063215
C  C14  1  0.74705000  0.98775000  0.63510000  1.0 0.5790044152
C  C15  1  0.47010000  0.06350000  0.31720000  1.0 -0.1516009412
C  C16  1  0.58980000  0.06300000  0.37880000  1.0 -0.0511923387
C  C17  1  0.67730000  0.15610000  0.05360000  1.0 -0.1426576293
C  C18  1  0.68430000  0.15690000  0.26500000  1.0 0.0741295226
C  C19  1  0.99810000  0.62010000  0.43660000  1.0 -0.0208063215
C  C20  1  0.98775000  0.74705000  0.36490000  1.0 0.5790044152
C  C21  1  0.06350000  0.47010000  0.68280000  1.0 -0.1516009412
C  C22  1  0.06300000  0.58980000  0.62120000  1.0 -0.0511923387
C  C23  1  0.15610000  0.67730000  0.94640000  1.0 -0.1426576293
C  C24  1  0.15690000  0.68430000  0.73500000  1.0 0.0741295226
C  C25  1  0.23200000  0.76800000  0.03720000  1.0 -0.0511923387
C  C26  1  0.76800000  0.23200000  0.96280000  1.0 -0.0511923387
N  N1  1  0.23490000  0.76510000  0.62690000  1.0 -0.235251031
N  N2  1  0.76510000  0.23490000  0.37310000  1.0 -0.235251031
O  O1  1  0.18825000  0.02089000  0.49940000  1.0 -0.5491361536
O  O2  1  0.22303000  0.01377000  0.17710000  1.0 -0.5491361536
O  O3  1  0.02089000  0.18825000  0.50060000  1.0 -0.5491361536
O  O4  1  0.01377000  0.22303000  0.82290000  1.0 -0.5491361536
O  O5  1  0.81175000  0.97911000  0.50060000  1.0 -0.5491361536
O  O6  1  0.77697000  0.98623000  0.82290000  1.0 -0.5491361536
O  O7  1  0.97911000  0.81175000  0.49940000  1.0 -0.5491361536
O  O8  1  0.98623000  0.77697000  0.17710000  1.0 -0.5491361536
O  O9  1  0.03352000  0.96648000  0.81790000  1.0 -0.8867643691
O  O10  1  0.96648000  0.03352000  0.18210000  1.0 -0.8867643691
