# DDEC6 charges by PACMAN v1.1 (https://github.com/mtap-research/PACMAN-charge/)
data_ZOMSOL_ion_pacman
_symmetry_space_group_name_H-M   'P 1'
_cell_length_a   13.20410000
_cell_length_b   13.78670000
_cell_length_c   15.38180000
_cell_angle_alpha   93.62500000
_cell_angle_beta   101.69600000
_cell_angle_gamma   95.85700000
_symmetry_Int_Tables_number   1
_chemical_formula_structural   Cd3P4H42C41N7O19
_chemical_formula_sum   'Cd6 P8 H84 C82 N14 O38'
_cell_volume   2717.52580043
_cell_formula_units_Z   2
loop_
 _symmetry_equiv_pos_site_id
 _symmetry_equiv_pos_as_xyz
  1  'x, y, z'
loop_
 _atom_site_type_symbol
 _atom_site_label
 _atom_site_symmetry_multiplicity
 _atom_site_fract_x
 _atom_site_fract_y
 _atom_site_fract_z
 _atom_site_occupancy
 _atom_site_charge
Cd  Cd1  1  0.63238000  0.32349000  0.33622000  1.0 0.9798920148
Cd  Cd2  1  0.36762000  0.67651000  0.66378000  1.0 0.9798920148
Cd  Cd3  1  0.12475000  0.32025000  0.29456000  1.0 0.9916045659
Cd  Cd4  1  0.87525000  0.67975000  0.70544000  1.0 0.9916045659
Cd  Cd5  1  0.50000000  0.00000000  0.00000000  1.0 0.999804973
Cd  Cd6  1  0.00000000  0.00000000  0.00000000  1.0 0.999804973
P  P1  1  0.38015000  0.25389000  0.37623000  1.0 1.2973281139
P  P2  1  0.61985000  0.74611000  0.62377000  1.0 1.2973281139
P  P3  1  0.15097000  0.21757000  0.09026000  1.0 1.2287102335
P  P4  1  0.84903000  0.78243000  0.90974000  1.0 1.2287102335
P  P5  1  0.59110000  0.08703000  0.22426000  1.0 1.2879320377
P  P6  1  0.40890000  0.91297000  0.77574000  1.0 1.2879320377
P  P7  1  0.86328000  0.35453000  0.26057000  1.0 1.0920673602
P  P8  1  0.13672000  0.64547000  0.73943000  1.0 1.0920673602
H  H1  1  0.30010000  0.14760000  0.46290000  1.0 0.1797709757
H  H2  1  0.69990000  0.85240000  0.53710000  1.0 0.1797709757
H  H3  1  0.46410000  0.07370000  0.41340000  1.0 0.1497059855
H  H4  1  0.53590000  0.92630000  0.58660000  1.0 0.1497059855
H  H5  1  0.38880000  0.02420000  0.47270000  1.0 0.1401900581
H  H6  1  0.61120000  0.97580000  0.52730000  1.0 0.1401900581
H  H7  1  0.04970000  0.40240000  0.96230000  1.0 0.0992696402
H  H8  1  0.95030000  0.59760000  0.03770000  1.0 0.0992696402
H  H9  1  0.03210000  0.37730000  0.05940000  1.0 0.1207952139
H  H10  1  0.96790000  0.62270000  0.94060000  1.0 0.1207952139
H  H11  1  0.57430000  0.94810000  0.30190000  1.0 0.1924881929
H  H12  1  0.42570000  0.05190000  0.69810000  1.0 0.1924881929
H  H13  1  0.75460000  0.05940000  0.36770000  1.0 0.1497059855
H  H14  1  0.24540000  0.94060000  0.63230000  1.0 0.1497059855
H  H15  1  0.71180000  0.95770000  0.40110000  1.0 0.1497059855
H  H16  1  0.28820000  0.04230000  0.59890000  1.0 0.1497059855
H  H17  1  0.83560000  0.50090000  0.18880000  1.0 0.0992696402
H  H18  1  0.16440000  0.49910000  0.81120000  1.0 0.0992696402
H  H19  1  0.80350000  0.33150000  0.07260000  1.0 0.1089420787
H  H20  1  0.19650000  0.66850000  0.92740000  1.0 0.1089420787
H  H21  1  0.79060000  0.44040000  0.04320000  1.0 0.1401900581
H  H22  1  0.20940000  0.55960000  0.95680000  1.0 0.1401900581
H  H23  1  0.64810000  0.52350000  0.24400000  1.0 0.0992696402
H  H24  1  0.35190000  0.47650000  0.75600000  1.0 0.0992696402
H  H25  1  0.43420000  0.34450000  0.00770000  1.0 0.1292643215
H  H26  1  0.56580000  0.65550000  0.99230000  1.0 0.1292643215
H  H27  1  0.48090000  0.28010000  0.13930000  1.0 0.1207952139
H  H28  1  0.51910000  0.71990000  0.86070000  1.0 0.1207952139
H  H29  1  0.12660000  0.26130000  0.49130000  1.0 0.1207952139
H  H30  1  0.87340000  0.73870000  0.50870000  1.0 0.1207952139
H  H31  1  0.08710000  0.13850000  0.57460000  1.0 0.1207952139
H  H32  1  0.91290000  0.86150000  0.42540000  1.0 0.1207952139
H  H33  1  0.96280000  0.97120000  0.35150000  1.0 0.1292643215
H  H34  1  0.03720000  0.02880000  0.64850000  1.0 0.1292643215
H  H35  1  0.01060000  0.09690000  0.27310000  1.0 0.1207952139
H  H36  1  0.98940000  0.90310000  0.72690000  1.0 0.1207952139
H  H37  1  0.27880000  0.87280000  0.99230000  1.0 0.1207952139
H  H38  1  0.72120000  0.12720000  0.00770000  1.0 0.1207952139
H  H39  1  0.19980000  0.74740000  0.05340000  1.0 0.1292643215
H  H40  1  0.80020000  0.25260000  0.94660000  1.0 0.1292643215
H  H41  1  0.47700000  0.71300000  0.20140000  1.0 0.1292643215
H  H42  1  0.52300000  0.28700000  0.79860000  1.0 0.1292643215
H  H43  1  0.54830000  0.83940000  0.13600000  1.0 0.1089420787
H  H44  1  0.45170000  0.16060000  0.86400000  1.0 0.1089420787
H  H45  1  0.13160000  0.65040000  0.13790000  1.0 0.1292643215
H  H46  1  0.86840000  0.34960000  0.86210000  1.0 0.1292643215
H  H47  1  0.06470000  0.51670000  0.19770000  1.0 0.0992696402
H  H48  1  0.93530000  0.48330000  0.80230000  1.0 0.0992696402
H  H49  1  0.33730000  0.43500000  0.27030000  1.0 0.1089420787
H  H50  1  0.66270000  0.56500000  0.72970000  1.0 0.1089420787
H  H51  1  0.41390000  0.57230000  0.22150000  1.0 0.1292643215
H  H52  1  0.58610000  0.42770000  0.77850000  1.0 0.1292643215
H  H53  1  0.95950000  0.84650000  0.13810000  1.0 0.1089420787
H  H54  1  0.04050000  0.15350000  0.86190000  1.0 0.1089420787
H  H55  1  0.03000000  0.77700000  0.26360000  1.0 0.1292643215
H  H56  1  0.97000000  0.22300000  0.73640000  1.0 0.1292643215
H  H57  1  0.29870000  0.94470000  0.27350000  1.0 0.1401900581
H  H58  1  0.70130000  0.05530000  0.72650000  1.0 0.1401900581
H  H59  1  0.21890000  0.01080000  0.14800000  1.0 0.1207952139
H  H60  1  0.78110000  0.98920000  0.85200000  1.0 0.1207952139
H  H61  1  0.09150000  0.80290000  0.41890000  1.0 0.1292643215
H  H62  1  0.90850000  0.19710000  0.58110000  1.0 0.1292643215
H  H63  1  0.16310000  0.75110000  0.55180000  1.0 0.1207952139
H  H64  1  0.83690000  0.24890000  0.44820000  1.0 0.1207952139
H  H65  1  0.42290000  0.73330000  0.47710000  1.0 0.1207952139
H  H66  1  0.57710000  0.26670000  0.52290000  1.0 0.1207952139
H  H67  1  0.36160000  0.79760000  0.34690000  1.0 0.1401900581
H  H68  1  0.63840000  0.20240000  0.65310000  1.0 0.1401900581
H  H69  1  0.27290000  0.23360000  0.19280000  1.0 0.3795980358
H  H70  1  0.72710000  0.76640000  0.80720000  1.0 0.3795980358
H  H71  1  0.46850000  0.14410000  0.25480000  1.0 0.3676387214
H  H72  1  0.53150000  0.85590000  0.74520000  1.0 0.3676387214
H  H73  1  0.78820000  0.21990000  0.24180000  1.0 0.3676387214
H  H74  1  0.21180000  0.78010000  0.75820000  1.0 0.3676387214
H  H75  1  0.13950000  0.36320000  0.91490000  1.0 0.1089420787
H  H76  1  0.86050000  0.63680000  0.08510000  1.0 0.1089420787
H  H77  1  0.22930000  0.29440000  0.94630000  1.0 0.1401900581
H  H78  1  0.77070000  0.70560000  0.05370000  1.0 0.1401900581
H  H79  1  0.76380000  0.31700000  0.11270000  1.0 0.1207952139
H  H80  1  0.23620000  0.68300000  0.88730000  1.0 0.1207952139
H  H81  1  0.86670000  0.50750000  0.15310000  1.0 0.0992696402
H  H82  1  0.13330000  0.49250000  0.84690000  1.0 0.0992696402
H  H83  1  0.79520000  0.46590000  0.05780000  1.0 0.1401900581
H  H84  1  0.20480000  0.53410000  0.94220000  1.0 0.1401900581
C  C1  1  0.35590000  0.14890000  0.43440000  1.0 -0.3309623009
C  C2  1  0.64410000  0.85110000  0.56560000  1.0 -0.3309623009
C  C3  1  0.40760000  0.07570000  0.44070000  1.0 -0.2392846303
C  C4  1  0.59240000  0.92430000  0.55930000  1.0 -0.2392846303
C  C5  1  0.14680000  0.31820000  0.02270000  1.0 -0.1495425261
C  C6  1  0.85320000  0.68180000  0.97730000  1.0 -0.1495425261
C  C7  1  0.06860000  0.37110000  0.01390000  1.0 -0.2202902622
C  C8  1  0.93140000  0.62890000  0.98610000  1.0 -0.2202902622
C  C9  1  0.62320000  0.00220000  0.30410000  1.0 -0.3369218937
C  C10  1  0.37680000  0.99780000  0.69590000  1.0 -0.3369218937
C  C11  1  0.70310000  0.00680000  0.36240000  1.0 -0.2099777794
C  C12  1  0.29690000  0.99320000  0.63760000  1.0 -0.2099777794
C  C13  1  0.83300000  0.43410000  0.17420000  1.0 -0.0979221768
C  C14  1  0.16700000  0.56590000  0.82580000  1.0 -0.0979221768
C  C15  1  0.80600000  0.39800000  0.08770000  1.0 -0.0930558276
C  C16  1  0.19400000  0.60200000  0.91230000  1.0 -0.0930558276
C  C17  1  0.60440000  0.48700000  0.19530000  1.0 0.0416039818
C  C18  1  0.39560000  0.51300000  0.80470000  1.0 0.0416039818
C  C19  1  0.57940000  0.53140000  0.11720000  1.0 -0.2006762183
C  C20  1  0.42060000  0.46860000  0.88280000  1.0 -0.2099777794
C  C21  1  0.51370000  0.47770000  0.04280000  1.0 0.0799020709
C  C22  1  0.48630000  0.52230000  0.95720000  1.0 0.0799020709
C  C23  1  0.47840000  0.38300000  0.05490000  1.0 -0.178432944
C  C24  1  0.52160000  0.61700000  0.94510000  1.0 -0.178432944
C  C25  1  0.50660000  0.34440000  0.13430000  1.0 0.0799020709
C  C26  1  0.49340000  0.65560000  0.86570000  1.0 0.0799020709
C  C27  1  0.09360000  0.20180000  0.46220000  1.0 0.0799020709
C  C28  1  0.90640000  0.79820000  0.53780000  1.0 0.0799020709
C  C29  1  0.06850000  0.12850000  0.51280000  1.0 -0.2006762183
C  C30  1  0.93150000  0.87150000  0.48720000  1.0 -0.2006762183
C  C31  1  0.01590000  0.04000000  0.47320000  1.0 0.0992696402
C  C32  1  0.98410000  0.96000000  0.52680000  1.0 0.0992696402
C  C33  1  0.99610000  0.02990000  0.38200000  1.0 -0.1902856964
C  C34  1  0.00390000  0.97010000  0.61800000  1.0 -0.1902856964
C  C35  1  0.02520000  0.10620000  0.33490000  1.0 0.1089420787
C  C36  1  0.97480000  0.89380000  0.66510000  1.0 0.1089420787
C  C37  1  0.31950000  0.83990000  0.03470000  1.0 0.0799020709
C  C38  1  0.68050000  0.16010000  0.96530000  1.0 0.0799020709
C  C39  1  0.27140000  0.76400000  0.07100000  1.0 -0.2202902622
C  C40  1  0.72860000  0.23600000  0.92900000  1.0 -0.2202902622
C  C41  1  0.32860000  0.71290000  0.13290000  1.0 0.0992696402
C  C42  1  0.67140000  0.28710000  0.86710000  1.0 0.0992696402
C  C43  1  0.43490000  0.74380000  0.15820000  1.0 -0.1902856964
C  C44  1  0.56510000  0.25620000  0.84180000  1.0 -0.1902856964
C  C45  1  0.47710000  0.82020000  0.11880000  1.0 0.0895477063
C  C46  1  0.52290000  0.17980000  0.88120000  1.0 0.0895477063
C  C47  1  0.28110000  0.62680000  0.17170000  1.0 0.0895477063
C  C48  1  0.71890000  0.37320000  0.82830000  1.0 0.0895477063
C  C49  1  0.17600000  0.60820000  0.16560000  1.0 -0.2202902622
C  C50  1  0.82400000  0.39180000  0.83440000  1.0 -0.2202902622
C  C51  1  0.13610000  0.52670000  0.20080000  1.0 0.0571293228
C  C52  1  0.86390000  0.47330000  0.79920000  1.0 0.0571293228
C  C53  1  0.29490000  0.47980000  0.24430000  1.0 0.1089420787
C  C54  1  0.70510000  0.52020000  0.75570000  1.0 0.1089420787
C  C55  1  0.34180000  0.56170000  0.21370000  1.0 -0.178432944
C  C56  1  0.65820000  0.43830000  0.78630000  1.0 -0.178432944
C  C57  1  0.02840000  0.86680000  0.16590000  1.0 0.0895477063
C  C58  1  0.97160000  0.13320000  0.83410000  1.0 0.0895477063
C  C59  1  0.07020000  0.82480000  0.24140000  1.0 -0.1902856964
C  C60  1  0.92980000  0.17520000  0.75860000  1.0 -0.1902856964
C  C61  1  0.17350000  0.85400000  0.28480000  1.0 0.0992696402
C  C62  1  0.82650000  0.14600000  0.71520000  1.0 0.0992696402
C  C63  1  0.22930000  0.92390000  0.24780000  1.0 -0.178432944
C  C64  1  0.77070000  0.07610000  0.75220000  1.0 -0.178432944
C  C65  1  0.18040000  0.96280000  0.17160000  1.0 0.1089420787
C  C66  1  0.81960000  0.03720000  0.82840000  1.0 0.1089420787
C  C67  1  0.21880000  0.81150000  0.36810000  1.0 0.0992696402
C  C68  1  0.78120000  0.18850000  0.63190000  1.0 0.0895477063
C  C69  1  0.16120000  0.79220000  0.43030000  1.0 -0.178432944
C  C70  1  0.83880000  0.20780000  0.56970000  1.0 -0.178432944
C  C71  1  0.20340000  0.75750000  0.50900000  1.0 0.0799020709
C  C72  1  0.79660000  0.24250000  0.49100000  1.0 0.0799020709
C  C73  1  0.35480000  0.74890000  0.46600000  1.0 0.0895477063
C  C74  1  0.64520000  0.25110000  0.53400000  1.0 0.0895477063
C  C75  1  0.31850000  0.78760000  0.38720000  1.0 -0.1902856964
C  C76  1  0.68150000  0.21240000  0.61280000  1.0 -0.1902856964
C  C77  1  0.17350000  0.32570000  0.95730000  1.0 -0.168310546
C  C78  1  0.82650000  0.67430000  0.04270000  1.0 -0.168310546
C  C79  1  0.80580000  0.36850000  0.14860000  1.0 -0.0930558276
C  C80  1  0.19420000  0.63150000  0.85140000  1.0 -0.0930558276
C  C81  1  0.82400000  0.45660000  0.11600000  1.0 -0.0930558276
C  C82  1  0.17600000  0.54340000  0.88400000  1.0 -0.0930558276
N  N1  1  0.56970000  0.39480000  0.20540000  1.0 -0.2507030672
N  N2  1  0.43030000  0.60520000  0.79460000  1.0 -0.2507030672
N  N3  1  0.07320000  0.19230000  0.37370000  1.0 -0.2202902622
N  N4  1  0.92680000  0.80770000  0.62630000  1.0 -0.2202902622
N  N5  1  0.42140000  0.86850000  0.05730000  1.0 -0.2392846303
N  N6  1  0.57860000  0.13150000  0.94270000  1.0 -0.2392846303
N  N7  1  0.19460000  0.46190000  0.23880000  1.0 -0.2202902622
N  N8  1  0.80540000  0.53810000  0.76120000  1.0 -0.2202902622
N  N9  1  0.08250000  0.93590000  0.13050000  1.0 -0.2392846303
N  N10  1  0.91750000  0.06410000  0.86950000  1.0 -0.2392846303
N  N11  1  0.29950000  0.73250000  0.52720000  1.0 -0.2099777794
N  N12  1  0.70050000  0.26750000  0.47280000  1.0 -0.2099777794
N  N13  1  0.23510000  0.24660000  0.73410000  1.0 0.6185404652
N  N14  1  0.76490000  0.75340000  0.26590000  1.0 0.6185404652
O  O1  1  0.28300000  0.25890000  0.30530000  1.0 -0.7585768408
O  O2  1  0.71700000  0.74110000  0.69470000  1.0 -0.7585768408
O  O3  1  0.40480000  0.34200000  0.44380000  1.0 -0.5692297823
O  O4  1  0.59520000  0.65800000  0.55620000  1.0 -0.5692297823
O  O5  1  0.47170000  0.23700000  0.33290000  1.0 -0.7585768408
O  O6  1  0.52830000  0.76300000  0.66710000  1.0 -0.7585768408
O  O7  1  0.08320000  0.22970000  0.15690000  1.0 -0.6900838173
O  O8  1  0.91680000  0.77030000  0.84310000  1.0 -0.6900838173
O  O9  1  0.26780000  0.22160000  0.13910000  1.0 -0.5462543375
O  O10  1  0.73220000  0.77840000  0.86090000  1.0 -0.5462543375
O  O11  1  0.12490000  0.12700000  0.02790000  1.0 -0.661898256
O  O12  1  0.87510000  0.87300000  0.97210000  1.0 -0.661898256
O  O13  1  0.47350000  0.09970000  0.21830000  1.0 -0.5933077938
O  O14  1  0.52650000  0.90030000  0.78170000  1.0 -0.5933077938
O  O15  1  0.65770000  0.18260000  0.25600000  1.0 -0.7585768408
O  O16  1  0.34230000  0.81740000  0.74400000  1.0 -0.7585768408
O  O17  1  0.60300000  0.04100000  0.13660000  1.0 -0.7151829607
O  O18  1  0.39700000  0.95900000  0.86340000  1.0 -0.7151829607
O  O19  1  0.79660000  0.38240000  0.32420000  1.0 -0.6900838173
O  O20  1  0.20340000  0.61760000  0.67580000  1.0 -0.6900838173
O  O21  1  0.97680000  0.38480000  0.29150000  1.0 -0.6693649298
O  O22  1  0.02320000  0.61520000  0.70850000  1.0 -0.6693649298
O  O23  1  0.84680000  0.24160000  0.23700000  1.0 -0.5560875541
O  O24  1  0.15320000  0.75840000  0.76300000  1.0 -0.5560875541
O  O25  1  0.57900000  0.44960000  0.41560000  1.0 -0.2933923311
O  O26  1  0.42100000  0.55040000  0.58440000  1.0 -0.2933923311
O  O27  1  0.20570000  0.40800000  0.43200000  1.0 -0.3975873298
O  O28  1  0.79430000  0.59200000  0.56800000  1.0 -0.3975873298
O  O29  1  0.36560000  0.09540000  0.02290000  1.0 -0.2817342586
O  O30  1  0.63440000  0.90460000  0.97710000  1.0 -0.2817342586
O  O31  1  0.90610000  0.09290000  0.07940000  1.0 -0.4541772312
O  O32  1  0.09390000  0.90710000  0.92060000  1.0 -0.4590555436
O  O33  1  0.16340000  0.18370000  0.73590000  1.0 -0.3573229915
O  O34  1  0.22790000  0.30000000  0.67300000  1.0 -0.3369218937
O  O35  1  0.31320000  0.25210000  0.78480000  1.0 -0.3074088401
O  O36  1  0.83660000  0.81630000  0.26410000  1.0 -0.3573229915
O  O37  1  0.77210000  0.70000000  0.32700000  1.0 -0.3369218937
O  O38  1  0.68680000  0.74790000  0.21520000  1.0 -0.3074088401
