# DDEC6 charges by PACMAN v1.1 (https://github.com/mtap-research/PACMAN-charge/)
data_ZOQFIW_ion_pacman
_symmetry_space_group_name_H-M   'P 1'
_cell_length_a   9.72625000
_cell_length_b   9.72625000
_cell_length_c   24.88920000
_cell_angle_alpha   90.00000000
_cell_angle_beta   90.00000000
_cell_angle_gamma   90.27450000
_symmetry_Int_Tables_number   1
_chemical_formula_structural   Cu4P6H16C6N2Cl(O5F)4
_chemical_formula_sum   'Cu16 P24 H64 C24 N8 Cl4 O80 F16'
_cell_volume   2354.48978176
_cell_formula_units_Z   4
loop_
 _symmetry_equiv_pos_site_id
 _symmetry_equiv_pos_as_xyz
  1  'x, y, z'
loop_
 _atom_site_type_symbol
 _atom_site_label
 _atom_site_symmetry_multiplicity
 _atom_site_fract_x
 _atom_site_fract_y
 _atom_site_fract_z
 _atom_site_occupancy
 _atom_site_charge
Cu  Cu1  1  0.06425000  0.16653000  0.72391000  1.0 0.9742656076
Cu  Cu2  1  0.43575000  0.33347000  0.22391000  1.0 0.9742656076
Cu  Cu3  1  0.33347000  0.43575000  0.77609000  1.0 0.9742656076
Cu  Cu4  1  0.16653000  0.06425000  0.27609000  1.0 0.9742656076
Cu  Cu5  1  0.93575000  0.83347000  0.27609000  1.0 0.9742656076
Cu  Cu6  1  0.56425000  0.66653000  0.77609000  1.0 0.9742656076
Cu  Cu7  1  0.66653000  0.56425000  0.22391000  1.0 0.9742656076
Cu  Cu8  1  0.83347000  0.93575000  0.72391000  1.0 0.9742656076
Cu  Cu9  1  0.29681000  0.93689000  0.72158000  1.0 0.9934126832
Cu  Cu10  1  0.20319000  0.56311000  0.22158000  1.0 0.9934126832
Cu  Cu11  1  0.56311000  0.20319000  0.77842000  1.0 0.9934126832
Cu  Cu12  1  0.93689000  0.29681000  0.27842000  1.0 0.9934126832
Cu  Cu13  1  0.70319000  0.06311000  0.27842000  1.0 0.9934126832
Cu  Cu14  1  0.79681000  0.43689000  0.77842000  1.0 0.9934126832
Cu  Cu15  1  0.43689000  0.79681000  0.22158000  1.0 0.9934126832
Cu  Cu16  1  0.06311000  0.70319000  0.72158000  1.0 0.9934126832
P  P1  1  0.35420000  0.64580000  0.68060000  1.0 1.4691187539
P  P2  1  0.14580000  0.85420000  0.18060000  1.0 1.4691187539
P  P3  1  0.85420000  0.14580000  0.81940000  1.0 1.4691187539
P  P4  1  0.64580000  0.35420000  0.31940000  1.0 1.4691187539
P  P5  1  0.27140000  0.72860000  0.81540000  1.0 1.4233199754
P  P6  1  0.22860000  0.77140000  0.31540000  1.0 1.4233199754
P  P7  1  0.77140000  0.22860000  0.68460000  1.0 1.4233199754
P  P8  1  0.72860000  0.27140000  0.18460000  1.0 1.4233199754
P  P9  1  0.27250000  0.14410000  0.81701000  1.0 1.4383327761
P  P10  1  0.22750000  0.35590000  0.31701000  1.0 1.4383327761
P  P11  1  0.35590000  0.22750000  0.68299000  1.0 1.4383327761
P  P12  1  0.14410000  0.27250000  0.18299000  1.0 1.4383327761
P  P13  1  0.72750000  0.85590000  0.18299000  1.0 1.4383327761
P  P14  1  0.77250000  0.64410000  0.68299000  1.0 1.4383327761
P  P15  1  0.64410000  0.77250000  0.31701000  1.0 1.4383327761
P  P16  1  0.85590000  0.72750000  0.81701000  1.0 1.4383327761
P  P17  1  0.01600000  0.98400000  0.54610000  1.0 -0.0307646699
P  P18  1  0.48400000  0.51600000  0.04610000  1.0 -0.0307646699
P  P19  1  0.51600000  0.48400000  0.95390000  1.0 -0.0307646699
P  P20  1  0.98400000  0.01600000  0.45390000  1.0 -0.0390639338
P  P21  1  0.05420000  0.94580000  0.61420000  1.0 0.3874327042
P  P22  1  0.44580000  0.55420000  0.11420000  1.0 0.3825564383
P  P23  1  0.55420000  0.44580000  0.88580000  1.0 0.3825564383
P  P24  1  0.94580000  0.05420000  0.38580000  1.0 0.3825564383
H  H1  1  0.30940000  0.03920000  0.01300000  1.0 0.0898525459
H  H2  1  0.69060000  0.96080000  0.98700000  1.0 0.0898525459
H  H3  1  0.30910000  0.89850000  0.04410000  1.0 0.1013379642
H  H4  1  0.69090000  0.10150000  0.95590000  1.0 0.1013379642
H  H5  1  0.53850000  0.93170000  0.06880000  1.0 0.05748459
H  H6  1  0.46150000  0.06830000  0.93120000  1.0 0.05748459
H  H7  1  0.47260000  0.80700000  0.98280000  1.0 0.0728466534
H  H8  1  0.52740000  0.19300000  0.01720000  1.0 0.0728466534
H  H9  1  0.34580000  0.86020000  0.94970000  1.0 0.1013379642
H  H10  1  0.65420000  0.13980000  0.05030000  1.0 0.1013379642
H  H11  1  0.49860000  0.11000000  0.12590000  1.0 0.3018842121
H  H12  1  0.50140000  0.89000000  0.87410000  1.0 0.3018842121
H  H13  1  0.37930000  0.01950000  0.12460000  1.0 0.3018842121
H  H14  1  0.62070000  0.98050000  0.87540000  1.0 0.3018842121
H  H15  1  0.37670000  0.14970000  0.09600000  1.0 0.2648720541
H  H16  1  0.62330000  0.85030000  0.90400000  1.0 0.2654928365
H  H17  1  0.19060000  0.46080000  0.51300000  1.0 0.0898525459
H  H18  1  0.80940000  0.53920000  0.48700000  1.0 0.0898525459
H  H19  1  0.19090000  0.60150000  0.54410000  1.0 0.1013379642
H  H20  1  0.80910000  0.39850000  0.45590000  1.0 0.1013379642
H  H21  1  0.96150000  0.56830000  0.56880000  1.0 0.05748459
H  H22  1  0.03850000  0.43170000  0.43120000  1.0 0.05748459
H  H23  1  0.02740000  0.69300000  0.48280000  1.0 0.0728466534
H  H24  1  0.97260000  0.30700000  0.51720000  1.0 0.0728466534
H  H25  1  0.15420000  0.63980000  0.44970000  1.0 0.1013379642
H  H26  1  0.84580000  0.36020000  0.55030000  1.0 0.1013379642
H  H27  1  0.00140000  0.39000000  0.62590000  1.0 0.3018842121
H  H28  1  0.99860000  0.61000000  0.37410000  1.0 0.3018842121
H  H29  1  0.12070000  0.48050000  0.62460000  1.0 0.3018842121
H  H30  1  0.87930000  0.51950000  0.37540000  1.0 0.3018842121
H  H31  1  0.12330000  0.35030000  0.59600000  1.0 0.2648720541
H  H32  1  0.87670000  0.64970000  0.40400000  1.0 0.2648720541
H  H33  1  0.46080000  0.19060000  0.48700000  1.0 0.0898525459
H  H34  1  0.53920000  0.80940000  0.51300000  1.0 0.0898525459
H  H35  1  0.60150000  0.19090000  0.45590000  1.0 0.1013379642
H  H36  1  0.39850000  0.80910000  0.54410000  1.0 0.1013379642
H  H37  1  0.56830000  0.96150000  0.43120000  1.0 0.05748459
H  H38  1  0.43170000  0.03850000  0.56880000  1.0 0.05748459
H  H39  1  0.69300000  0.02740000  0.51720000  1.0 0.0728466534
H  H40  1  0.30700000  0.97260000  0.48280000  1.0 0.0728466534
H  H41  1  0.63980000  0.15420000  0.55030000  1.0 0.1013379642
H  H42  1  0.36020000  0.84580000  0.44970000  1.0 0.1013379642
H  H43  1  0.39000000  0.00140000  0.37410000  1.0 0.3018842121
H  H44  1  0.61000000  0.99860000  0.62590000  1.0 0.3018842121
H  H45  1  0.48050000  0.12070000  0.37540000  1.0 0.3018842121
H  H46  1  0.51950000  0.87930000  0.62460000  1.0 0.3018842121
H  H47  1  0.35030000  0.12330000  0.40400000  1.0 0.2648720541
H  H48  1  0.64970000  0.87670000  0.59600000  1.0 0.2648720541
H  H49  1  0.03920000  0.30940000  0.98700000  1.0 0.0898525459
H  H50  1  0.96080000  0.69060000  0.01300000  1.0 0.0898525459
H  H51  1  0.89850000  0.30910000  0.95590000  1.0 0.1013379642
H  H52  1  0.10150000  0.69090000  0.04410000  1.0 0.1013379642
H  H53  1  0.93170000  0.53850000  0.93120000  1.0 0.05748459
H  H54  1  0.06830000  0.46150000  0.06880000  1.0 0.05748459
H  H55  1  0.80700000  0.47260000  0.01720000  1.0 0.0728466534
H  H56  1  0.19300000  0.52740000  0.98280000  1.0 0.0728466534
H  H57  1  0.86020000  0.34580000  0.05030000  1.0 0.1013379642
H  H58  1  0.13980000  0.65420000  0.94970000  1.0 0.1013379642
H  H59  1  0.11000000  0.49860000  0.87410000  1.0 0.3018842121
H  H60  1  0.89000000  0.50140000  0.12590000  1.0 0.3018842121
H  H61  1  0.01950000  0.37930000  0.87540000  1.0 0.3018842121
H  H62  1  0.98050000  0.62070000  0.12460000  1.0 0.3018842121
H  H63  1  0.14970000  0.37670000  0.90400000  1.0 0.2648720541
H  H64  1  0.85030000  0.62330000  0.09600000  1.0 0.2648720541
C  C1  1  0.36580000  0.96180000  0.02350000  1.0 -0.2250108323
C  C2  1  0.63420000  0.03820000  0.97650000  1.0 -0.2243621549
C  C3  1  0.48430000  0.01130000  0.05760000  1.0 0.1417262596
C  C4  1  0.51570000  0.98870000  0.94240000  1.0 0.1417262596
C  C5  1  0.42160000  0.88840000  0.97260000  1.0 -0.2664963877
C  C6  1  0.57840000  0.11160000  0.02740000  1.0 -0.2664963877
C  C7  1  0.13420000  0.53820000  0.52350000  1.0 -0.2243621549
C  C8  1  0.86580000  0.46180000  0.47650000  1.0 -0.2243621549
C  C9  1  0.01570000  0.48870000  0.55760000  1.0 0.1417262596
C  C10  1  0.98430000  0.51130000  0.44240000  1.0 0.1417262596
C  C11  1  0.07840000  0.61160000  0.47260000  1.0 -0.2664963877
C  C12  1  0.92160000  0.38840000  0.52740000  1.0 -0.2664963877
C  C13  1  0.53820000  0.13420000  0.47650000  1.0 -0.2243621549
C  C14  1  0.46180000  0.86580000  0.52350000  1.0 -0.2243621549
C  C15  1  0.48870000  0.01570000  0.44240000  1.0 0.1417262596
C  C16  1  0.51130000  0.98430000  0.55760000  1.0 0.1417262596
C  C17  1  0.61160000  0.07840000  0.52740000  1.0 -0.2664963877
C  C18  1  0.38840000  0.92160000  0.47260000  1.0 -0.2664963877
C  C19  1  0.96180000  0.36580000  0.97650000  1.0 -0.2243621549
C  C20  1  0.03820000  0.63420000  0.02350000  1.0 -0.2250108323
C  C21  1  0.01130000  0.48430000  0.94240000  1.0 0.1417262596
C  C22  1  0.98870000  0.51570000  0.05760000  1.0 0.1417262596
C  C23  1  0.88840000  0.42160000  0.02740000  1.0 -0.2664963877
C  C24  1  0.11160000  0.57840000  0.97260000  1.0 -0.2664963877
N  N1  1  0.42930000  0.07930000  0.10580000  1.0 -0.5412401832
N  N2  1  0.57070000  0.92070000  0.89420000  1.0 -0.5412401832
N  N3  1  0.07070000  0.42070000  0.60580000  1.0 -0.5412401832
N  N4  1  0.92930000  0.57930000  0.39420000  1.0 -0.5412401832
N  N5  1  0.42070000  0.07070000  0.39420000  1.0 -0.5412401832
N  N6  1  0.57930000  0.92930000  0.60580000  1.0 -0.5412401832
N  N7  1  0.07930000  0.42930000  0.89420000  1.0 -0.5412401832
N  N8  1  0.92070000  0.57070000  0.10580000  1.0 -0.5412401832
Cl  Cl1  1  0.05990000  0.94010000  0.67490000  1.0 -0.2445509336
Cl  Cl2  1  0.44010000  0.55990000  0.17490000  1.0 -0.2454799564
Cl  Cl3  1  0.55990000  0.44010000  0.82510000  1.0 -0.2454799564
Cl  Cl4  1  0.94010000  0.05990000  0.32510000  1.0 -0.2454799564
O  O1  1  0.20950000  0.79050000  0.76420000  1.0 -0.8066554866
O  O2  1  0.29050000  0.70950000  0.26420000  1.0 -0.8066554866
O  O3  1  0.70950000  0.29050000  0.73580000  1.0 -0.8066554866
O  O4  1  0.79050000  0.20950000  0.23580000  1.0 -0.8066554866
O  O5  1  0.39040000  0.79760000  0.67880000  1.0 -0.7677909932
O  O6  1  0.10960000  0.70240000  0.17880000  1.0 -0.7677909932
O  O7  1  0.70240000  0.10960000  0.82120000  1.0 -0.7677909932
O  O8  1  0.79760000  0.39040000  0.32120000  1.0 -0.7677909932
O  O9  1  0.60960000  0.20240000  0.32120000  1.0 -0.7677909932
O  O10  1  0.89040000  0.29760000  0.82120000  1.0 -0.7677909932
O  O11  1  0.29760000  0.89040000  0.17880000  1.0 -0.7677909932
O  O12  1  0.20240000  0.60960000  0.67880000  1.0 -0.7677909932
O  O13  1  0.42090000  0.57910000  0.73170000  1.0 -0.8066554866
O  O14  1  0.07910000  0.92090000  0.23170000  1.0 -0.8066554866
O  O15  1  0.92090000  0.07910000  0.76830000  1.0 -0.8066554866
O  O16  1  0.57910000  0.42090000  0.26830000  1.0 -0.8066554866
O  O17  1  0.23960000  0.29560000  0.81710000  1.0 -0.7753949142
O  O18  1  0.26040000  0.20440000  0.31710000  1.0 -0.7753949142
O  O19  1  0.20440000  0.26040000  0.68290000  1.0 -0.7753949142
O  O20  1  0.29560000  0.23960000  0.18290000  1.0 -0.7753949142
O  O21  1  0.76040000  0.70440000  0.18290000  1.0 -0.7753949142
O  O22  1  0.73960000  0.79560000  0.68290000  1.0 -0.7753949142
O  O23  1  0.79560000  0.73960000  0.31710000  1.0 -0.7753949142
O  O24  1  0.70440000  0.76040000  0.81710000  1.0 -0.7753949142
O  O25  1  0.20710000  0.07470000  0.76670000  1.0 -0.7998906015
O  O26  1  0.29290000  0.42530000  0.26670000  1.0 -0.7998906015
O  O27  1  0.42530000  0.29290000  0.73330000  1.0 -0.7998906015
O  O28  1  0.07470000  0.20710000  0.23330000  1.0 -0.7998906015
O  O29  1  0.79290000  0.92530000  0.23330000  1.0 -0.7998906015
O  O30  1  0.70710000  0.57470000  0.73330000  1.0 -0.7998906015
O  O31  1  0.57470000  0.70710000  0.26670000  1.0 -0.7998906015
O  O32  1  0.92530000  0.79290000  0.76670000  1.0 -0.7998906015
O  O33  1  0.42330000  0.10990000  0.81870000  1.0 -0.7639223686
O  O34  1  0.07670000  0.39010000  0.31870000  1.0 -0.7639223686
O  O35  1  0.39010000  0.07670000  0.68130000  1.0 -0.7639223686
O  O36  1  0.10990000  0.42330000  0.18130000  1.0 -0.7639223686
O  O37  1  0.57670000  0.89010000  0.18130000  1.0 -0.7639223686
O  O38  1  0.92330000  0.60990000  0.68130000  1.0 -0.7639223686
O  O39  1  0.60990000  0.92330000  0.31870000  1.0 -0.7639223686
O  O40  1  0.89010000  0.57670000  0.81870000  1.0 -0.7639223686
O  O41  1  0.42470000  0.76150000  0.81710000  1.0 -0.7998906015
O  O42  1  0.07530000  0.73850000  0.31710000  1.0 -0.7998906015
O  O43  1  0.73850000  0.07530000  0.68290000  1.0 -0.7998906015
O  O44  1  0.76150000  0.42470000  0.18290000  1.0 -0.7998906015
O  O45  1  0.57530000  0.23850000  0.18290000  1.0 -0.7998906015
O  O46  1  0.92470000  0.26150000  0.68290000  1.0 -0.7998906015
O  O47  1  0.26150000  0.92470000  0.31710000  1.0 -0.7998906015
O  O48  1  0.23850000  0.57530000  0.81710000  1.0 -0.7998906015
O  O49  1  0.02300000  0.80500000  0.58970000  1.0 -0.0601908834
O  O50  1  0.47700000  0.69500000  0.08970000  1.0 -0.0601908834
O  O51  1  0.69500000  0.47700000  0.91030000  1.0 -0.0601908834
O  O52  1  0.80500000  0.02300000  0.41030000  1.0 -0.0601908834
O  O53  1  0.97700000  0.19500000  0.41030000  1.0 -0.0601908834
O  O54  1  0.52300000  0.30500000  0.91030000  1.0 -0.0601908834
O  O55  1  0.30500000  0.52300000  0.08970000  1.0 -0.0601908834
O  O56  1  0.19500000  0.97700000  0.58970000  1.0 -0.0601908834
O  O57  1  0.94960000  0.05040000  0.59260000  1.0 0.1013379642
O  O58  1  0.55040000  0.44960000  0.09260000  1.0 0.1013379642
O  O59  1  0.44960000  0.55040000  0.90740000  1.0 0.1013379642
O  O60  1  0.05040000  0.94960000  0.40740000  1.0 0.1013379642
O  O61  1  0.03900000  0.09100000  0.59130000  1.0 0.0779589149
O  O62  1  0.46100000  0.40900000  0.09130000  1.0 0.0779589149
O  O63  1  0.40900000  0.46100000  0.90870000  1.0 0.0779589149
O  O64  1  0.09100000  0.03900000  0.40870000  1.0 0.0779589149
O  O65  1  0.96100000  0.90900000  0.40870000  1.0 0.0779589149
O  O66  1  0.53900000  0.59100000  0.90870000  1.0 0.0779589149
O  O67  1  0.59100000  0.53900000  0.09130000  1.0 0.0779589149
O  O68  1  0.90900000  0.96100000  0.59130000  1.0 0.0779589149
O  O69  1  0.15810000  0.84190000  0.59300000  1.0 -0.1887110597
O  O70  1  0.34190000  0.65810000  0.09300000  1.0 -0.1887110597
O  O71  1  0.65810000  0.34190000  0.90700000  1.0 -0.1887110597
O  O72  1  0.84190000  0.15810000  0.40700000  1.0 -0.1887110597
O  O73  1  0.92730000  0.87330000  0.59010000  1.0 0.0306384722
O  O74  1  0.57270000  0.62670000  0.09010000  1.0 0.0306384722
O  O75  1  0.62670000  0.57270000  0.90990000  1.0 0.0306384722
O  O76  1  0.87330000  0.92730000  0.40990000  1.0 0.0306384722
O  O77  1  0.07270000  0.12670000  0.40990000  1.0 0.0306384722
O  O78  1  0.42730000  0.37330000  0.90990000  1.0 0.0306384722
O  O79  1  0.37330000  0.42730000  0.09010000  1.0 0.0306384722
O  O80  1  0.12670000  0.07270000  0.59010000  1.0 0.0306384722
F  F1  1  0.42350000  0.57650000  0.63080000  1.0 -0.2914183489
F  F2  1  0.07650000  0.92350000  0.13080000  1.0 -0.2914183489
F  F3  1  0.92350000  0.07650000  0.86920000  1.0 -0.2914183489
F  F4  1  0.57650000  0.42350000  0.36920000  1.0 -0.2914183489
F  F5  1  0.20200000  0.07800000  0.86790000  1.0 -0.3010557097
F  F6  1  0.29800000  0.42200000  0.36790000  1.0 -0.3010557097
F  F7  1  0.42200000  0.29800000  0.63210000  1.0 -0.3010557097
F  F8  1  0.07800000  0.20200000  0.13210000  1.0 -0.3010557097
F  F9  1  0.79800000  0.92200000  0.13210000  1.0 -0.3010557097
F  F10  1  0.70200000  0.57800000  0.63210000  1.0 -0.3010557097
F  F11  1  0.57800000  0.70200000  0.36790000  1.0 -0.3010557097
F  F12  1  0.92200000  0.79800000  0.86790000  1.0 -0.3010557097
F  F13  1  0.20380000  0.79620000  0.86480000  1.0 -0.3010557097
F  F14  1  0.29620000  0.70380000  0.36480000  1.0 -0.3010557097
F  F15  1  0.70380000  0.29620000  0.63520000  1.0 -0.3010557097
F  F16  1  0.79620000  0.20380000  0.13520000  1.0 -0.3010557097
