# DDEC6 charges by PACMAN v1.1 (https://github.com/mtap-research/PACMAN-charge/)
data_ZOQSUV_FSR_pacman
_symmetry_space_group_name_H-M   'P 1'
_cell_length_a   18.76220000
_cell_length_b   18.76220000
_cell_length_c   32.55020000
_cell_angle_alpha   77.73980000
_cell_angle_beta   102.26000000
_cell_angle_gamma   132.49600000
_symmetry_Int_Tables_number   1
_chemical_formula_structural   Zn5H24C36(IN)12
_chemical_formula_sum   'Zn20 H96 C144 I48 N48'
_cell_volume   8217.99181062
_cell_formula_units_Z   4
loop_
 _symmetry_equiv_pos_site_id
 _symmetry_equiv_pos_as_xyz
  1  'x, y, z'
loop_
 _atom_site_type_symbol
 _atom_site_label
 _atom_site_symmetry_multiplicity
 _atom_site_fract_x
 _atom_site_fract_y
 _atom_site_fract_z
 _atom_site_occupancy
 _atom_site_charge
Zn  Zn1  1  0.83441000  0.45357000  0.79590000  1.0 0.1430950655
Zn  Zn2  1  0.54643000  0.16559000  0.29590000  1.0 0.1430950655
Zn  Zn3  1  0.16790000  0.03150000  0.10180000  1.0 0.3595428622
Zn  Zn4  1  0.96850000  0.83210000  0.60180000  1.0 0.3595428622
Zn  Zn5  1  0.28390000  0.52328000  0.93487000  1.0 0.3595428622
Zn  Zn6  1  0.47672000  0.71610000  0.43487000  1.0 0.3595428622
Zn  Zn7  1  0.81700000  0.47100000  0.78040000  1.0 0.1098736419
Zn  Zn8  1  0.52900000  0.18300000  0.28040000  1.0 0.1098736419
Zn  Zn9  1  0.18320000  0.03300000  0.10220000  1.0 0.3495444003
Zn  Zn10  1  0.96700000  0.81680000  0.60220000  1.0 0.3495444003
Zn  Zn11  1  0.45357000  0.83441000  0.70410000  1.0 0.1430950655
Zn  Zn12  1  0.16559000  0.54643000  0.20410000  1.0 0.1430950655
Zn  Zn13  1  0.03150000  0.16790000  0.39820000  1.0 0.3595428622
Zn  Zn14  1  0.83210000  0.96850000  0.89820000  1.0 0.3595428622
Zn  Zn15  1  0.52328000  0.28390000  0.56513000  1.0 0.3595428622
Zn  Zn16  1  0.71610000  0.47672000  0.06513000  1.0 0.3595428622
Zn  Zn17  1  0.47100000  0.81700000  0.71960000  1.0 0.1098736419
Zn  Zn18  1  0.18300000  0.52900000  0.21960000  1.0 0.1098736419
Zn  Zn19  1  0.03300000  0.18320000  0.39780000  1.0 0.3495444003
Zn  Zn20  1  0.81680000  0.96700000  0.89780000  1.0 0.3495444003
H  H1  1  0.97230000  0.95090000  0.06190000  1.0 0.0721728234
H  H2  1  0.04910000  0.02770000  0.56190000  1.0 0.0721728234
H  H3  1  0.85110000  0.84070000  0.01430000  1.0 0.1233152599
H  H4  1  0.15930000  0.14890000  0.51430000  1.0 0.1233152599
H  H5  1  0.03300000  0.81320000  0.98890000  1.0 0.128475818
H  H6  1  0.18680000  0.96700000  0.48890000  1.0 0.128475818
H  H7  1  0.15160000  0.92800000  0.03570000  1.0 0.0721728234
H  H8  1  0.07200000  0.84840000  0.53570000  1.0 0.0721728234
H  H9  1  0.91220000  0.52200000  0.88320000  1.0 0.0721728234
H  H10  1  0.47800000  0.08780000  0.38320000  1.0 0.0721728234
H  H11  1  0.90190000  0.59410000  0.92820000  1.0 0.1233152599
H  H12  1  0.40590000  0.09810000  0.42820000  1.0 0.1233152599
H  H13  1  0.71440000  0.59560000  0.83960000  1.0 0.128475818
H  H14  1  0.40440000  0.28560000  0.33960000  1.0 0.128475818
H  H15  1  0.73760000  0.53080000  0.79570000  1.0 0.0600385258
H  H16  1  0.46920000  0.26240000  0.29570000  1.0 0.0600385258
H  H17  1  0.38470000  0.49730000  0.88950000  1.0 0.0804775556
H  H18  1  0.50270000  0.61530000  0.38950000  1.0 0.0804775556
H  H19  1  0.52960000  0.53440000  0.89180000  1.0 0.128475818
H  H20  1  0.46560000  0.47040000  0.39180000  1.0 0.128475818
H  H21  1  0.61890000  0.66290000  0.99730000  1.0 0.1233152599
H  H22  1  0.33710000  0.38110000  0.49730000  1.0 0.1233152599
H  H23  1  0.46730000  0.61430000  0.99480000  1.0 0.0804775556
H  H24  1  0.38570000  0.53270000  0.49480000  1.0 0.0804775556
H  H25  1  0.44250000  0.73350000  0.91000000  1.0 0.0721728234
H  H26  1  0.26650000  0.55750000  0.41000000  1.0 0.0721728234
H  H27  1  0.47060000  0.85980000  0.86400000  1.0 0.1036416168
H  H28  1  0.14020000  0.52940000  0.36400000  1.0 0.1036416168
H  H29  1  0.19610000  0.66890000  0.80990000  1.0 0.1036416168
H  H30  1  0.33110000  0.80390000  0.30990000  1.0 0.1036416168
H  H31  1  0.17610000  0.54790000  0.85820000  1.0 0.0600385258
H  H32  1  0.45210000  0.82390000  0.35820000  1.0 0.0600385258
H  H33  1  0.01320000  0.71260000  0.66560000  1.0 0.0600385258
H  H34  1  0.28740000  0.98680000  0.16560000  1.0 0.0600385258
H  H35  1  0.12920000  0.74140000  0.72010000  1.0 0.1233152599
H  H36  1  0.25860000  0.87080000  0.22010000  1.0 0.128475818
H  H37  1  0.28300000  0.02640000  0.69140000  1.0 0.1098736419
H  H38  1  0.97360000  0.71700000  0.19140000  1.0 0.1098736419
H  H39  1  0.16260000  0.99200000  0.63840000  1.0 0.0721728234
H  H40  1  0.00800000  0.83740000  0.13840000  1.0 0.0721728234
H  H41  1  0.64910000  0.33630000  0.73880000  1.0 0.0600385258
H  H42  1  0.66370000  0.35090000  0.23880000  1.0 0.0600385258
H  H43  1  0.50310000  0.17970000  0.73240000  1.0 0.128475818
H  H44  1  0.82030000  0.49690000  0.23240000  1.0 0.128475818
H  H45  1  0.58990000  0.10130000  0.84250000  1.0 0.128475818
H  H46  1  0.89870000  0.41010000  0.34250000  1.0 0.128475818
H  H47  1  0.73010000  0.26070000  0.84560000  1.0 0.0804775556
H  H48  1  0.73930000  0.26990000  0.34560000  1.0 0.0804775556
H  H49  1  0.95090000  0.97230000  0.43810000  1.0 0.0721728234
H  H50  1  0.02770000  0.04910000  0.93810000  1.0 0.0721728234
H  H51  1  0.84070000  0.85110000  0.48570000  1.0 0.1233152599
H  H52  1  0.14890000  0.15930000  0.98570000  1.0 0.1233152599
H  H53  1  0.81320000  0.03300000  0.51110000  1.0 0.128475818
H  H54  1  0.96700000  0.18680000  0.01110000  1.0 0.128475818
H  H55  1  0.92800000  0.15160000  0.46430000  1.0 0.0721728234
H  H56  1  0.84840000  0.07200000  0.96430000  1.0 0.0721728234
H  H57  1  0.52200000  0.91220000  0.61680000  1.0 0.0721728234
H  H58  1  0.08780000  0.47800000  0.11680000  1.0 0.0721728234
H  H59  1  0.59410000  0.90190000  0.57180000  1.0 0.1233152599
H  H60  1  0.09810000  0.40590000  0.07180000  1.0 0.1233152599
H  H61  1  0.59560000  0.71440000  0.66040000  1.0 0.128475818
H  H62  1  0.28560000  0.40440000  0.16040000  1.0 0.128475818
H  H63  1  0.53080000  0.73760000  0.70430000  1.0 0.0600385258
H  H64  1  0.26240000  0.46920000  0.20430000  1.0 0.0600385258
H  H65  1  0.49730000  0.38470000  0.61050000  1.0 0.0804775556
H  H66  1  0.61530000  0.50270000  0.11050000  1.0 0.0804775556
H  H67  1  0.53440000  0.52960000  0.60820000  1.0 0.128475818
H  H68  1  0.47040000  0.46560000  0.10820000  1.0 0.128475818
H  H69  1  0.66290000  0.61890000  0.50270000  1.0 0.1233152599
H  H70  1  0.38110000  0.33710000  0.00270000  1.0 0.1233152599
H  H71  1  0.61430000  0.46730000  0.50520000  1.0 0.0804775556
H  H72  1  0.53270000  0.38570000  0.00520000  1.0 0.0804775556
H  H73  1  0.73350000  0.44250000  0.59000000  1.0 0.0721728234
H  H74  1  0.55750000  0.26650000  0.09000000  1.0 0.0721728234
H  H75  1  0.85980000  0.47060000  0.63600000  1.0 0.1036416168
H  H76  1  0.52940000  0.14020000  0.13600000  1.0 0.1036416168
H  H77  1  0.66890000  0.19610000  0.69010000  1.0 0.1036416168
H  H78  1  0.80390000  0.33110000  0.19010000  1.0 0.1036416168
H  H79  1  0.54790000  0.17610000  0.64180000  1.0 0.0600385258
H  H80  1  0.82390000  0.45210000  0.14180000  1.0 0.0600385258
H  H81  1  0.71260000  0.01320000  0.83440000  1.0 0.0600385258
H  H82  1  0.98680000  0.28740000  0.33440000  1.0 0.0600385258
H  H83  1  0.74140000  0.12920000  0.77990000  1.0 0.128475818
H  H84  1  0.87080000  0.25860000  0.27990000  1.0 0.1233152599
H  H85  1  0.02640000  0.28300000  0.80860000  1.0 0.1098736419
H  H86  1  0.71700000  0.97360000  0.30860000  1.0 0.1098736419
H  H87  1  0.99200000  0.16260000  0.86160000  1.0 0.0721728234
H  H88  1  0.83740000  0.00800000  0.36160000  1.0 0.0721728234
H  H89  1  0.33630000  0.64910000  0.76120000  1.0 0.0600385258
H  H90  1  0.35090000  0.66370000  0.26120000  1.0 0.0600385258
H  H91  1  0.17970000  0.50310000  0.76760000  1.0 0.128475818
H  H92  1  0.49690000  0.82030000  0.26760000  1.0 0.128475818
H  H93  1  0.10130000  0.58990000  0.65750000  1.0 0.128475818
H  H94  1  0.41010000  0.89870000  0.15750000  1.0 0.128475818
H  H95  1  0.26070000  0.73010000  0.65440000  1.0 0.0804775556
H  H96  1  0.26990000  0.73930000  0.15440000  1.0 0.0804775556
C  C1  1  0.98440000  0.92200000  0.04700000  1.0 0.0217743046
C  C2  1  0.07800000  0.01560000  0.54700000  1.0 0.0217743046
C  C3  1  0.91160000  0.85600000  0.01910000  1.0 -0.1715802972
C  C4  1  0.14400000  0.08840000  0.51910000  1.0 -0.1715802972
C  C5  1  0.92770000  0.81190000  0.99800000  1.0 0.0600385258
C  C6  1  0.18810000  0.07230000  0.49800000  1.0 0.0600385258
C  C7  1  0.01900000  0.84020000  0.00390000  1.0 -0.1594848932
C  C8  1  0.15980000  0.98100000  0.50390000  1.0 -0.1594848932
C  C9  1  0.08900000  0.90820000  0.03190000  1.0 0.0281292227
C  C10  1  0.09180000  0.91100000  0.53190000  1.0 0.0281292227
C  C11  1  0.84780000  0.73600000  0.96940000  1.0 0.33113638
C  C12  1  0.26400000  0.15220000  0.46940000  1.0 0.33113638
C  C13  1  0.69120000  0.64420000  0.94270000  1.0 0.3595428622
C  C14  1  0.35580000  0.30880000  0.44270000  1.0 0.3595428622
C  C15  1  0.79430000  0.64350000  0.91800000  1.0 0.3495444003
C  C16  1  0.35650000  0.20570000  0.41800000  1.0 0.3495444003
C  C17  1  0.87170000  0.53710000  0.87440000  1.0 0.0503537139
C  C18  1  0.46290000  0.12830000  0.37440000  1.0 0.0503537139
C  C19  1  0.86590000  0.58010000  0.90130000  1.0 -0.1594848932
C  C20  1  0.41990000  0.13410000  0.40130000  1.0 -0.1594848932
C  C21  1  0.80790000  0.60310000  0.88930000  1.0 0.0600385258
C  C22  1  0.39690000  0.19210000  0.38930000  1.0 0.0600385258
C  C23  1  0.75620000  0.58220000  0.84900000  1.0 -0.1594848932
C  C24  1  0.41780000  0.24380000  0.34900000  1.0 -0.1594848932
C  C25  1  0.76880000  0.54120000  0.82360000  1.0 0.0600385258
C  C26  1  0.45880000  0.23120000  0.32360000  1.0 0.0600385258
C  C27  1  0.43310000  0.53170000  0.91190000  1.0 0.0503537139
C  C28  1  0.46830000  0.56690000  0.41190000  1.0 0.0503537139
C  C29  1  0.52020000  0.55560000  0.91240000  1.0 -0.1594848932
C  C30  1  0.44440000  0.47980000  0.41240000  1.0 -0.1594848932
C  C31  1  0.59340000  0.61020000  0.94270000  1.0 0.0503537139
C  C32  1  0.38980000  0.40660000  0.44270000  1.0 0.0503537139
C  C33  1  0.57170000  0.62950000  0.97430000  1.0 -0.1715802972
C  C34  1  0.37050000  0.42830000  0.47430000  1.0 -0.1715802972
C  C35  1  0.48140000  0.60060000  0.97270000  1.0 0.0600385258
C  C36  1  0.39940000  0.51860000  0.47270000  1.0 0.0600385258
C  C37  1  0.39150000  0.72030000  0.88940000  1.0 0.0600385258
C  C38  1  0.27970000  0.60850000  0.38940000  1.0 0.0600385258
C  C39  1  0.40890000  0.79610000  0.86220000  1.0 -0.1715802972
C  C40  1  0.20390000  0.59110000  0.36220000  1.0 -0.1715802972
C  C41  1  0.33560000  0.77900000  0.83230000  1.0 0.0503537139
C  C42  1  0.22100000  0.66440000  0.33230000  1.0 0.0503537139
C  C43  1  0.24770000  0.68410000  0.83050000  1.0 -0.1594848932
C  C44  1  0.31590000  0.75230000  0.33050000  1.0 -0.1715802972
C  C45  1  0.23680000  0.61240000  0.85930000  1.0 0.0503537139
C  C46  1  0.38760000  0.76320000  0.35930000  1.0 0.0503537139
C  C47  1  0.35070000  0.85990000  0.80310000  1.0 0.3700041293
C  C48  1  0.14010000  0.64930000  0.30310000  1.0 0.3700041293
C  C49  1  0.43880000  0.01880000  0.78280000  1.0 0.3495444003
C  C50  1  0.98120000  0.56120000  0.28280000  1.0 0.3495444003
C  C51  1  0.29380000  0.90960000  0.74710000  1.0 0.3595428622
C  C52  1  0.09040000  0.70620000  0.24710000  1.0 0.3595428622
C  C53  1  0.06830000  0.77770000  0.67120000  1.0 0.0217743046
C  C54  1  0.22230000  0.93170000  0.17120000  1.0 0.0217743046
C  C55  1  0.13740000  0.79440000  0.70370000  1.0 -0.1516608851
C  C56  1  0.20560000  0.86260000  0.20370000  1.0 -0.1516608851
C  C57  1  0.21690000  0.88690000  0.71220000  1.0 0.0600385258
C  C58  1  0.11310000  0.78310000  0.21220000  1.0 0.0600385258
C  C59  1  0.22690000  0.96090000  0.68710000  1.0 -0.1594848932
C  C60  1  0.03910000  0.77310000  0.18710000  1.0 -0.1594848932
C  C61  1  0.15510000  0.93970000  0.65530000  1.0 0.0414037264
C  C62  1  0.06030000  0.84490000  0.15530000  1.0 0.0414037264
C  C63  1  0.63560000  0.28720000  0.76070000  1.0 0.0414037264
C  C64  1  0.71280000  0.36440000  0.26070000  1.0 0.0414037264
C  C65  1  0.54890000  0.19390000  0.75620000  1.0 -0.1594848932
C  C66  1  0.80610000  0.45110000  0.25620000  1.0 -0.1594848932
C  C67  1  0.53050000  0.12210000  0.78700000  1.0 0.0503537139
C  C68  1  0.87790000  0.46950000  0.28700000  1.0 0.0503537139
C  C69  1  0.59970000  0.14870000  0.82050000  1.0 -0.1715802972
C  C70  1  0.85130000  0.40030000  0.32050000  1.0 -0.1715802972
C  C71  1  0.68290000  0.24370000  0.82220000  1.0 0.0414037264
C  C72  1  0.75630000  0.31710000  0.32220000  1.0 0.0414037264
C  C73  1  0.92200000  0.98440000  0.45300000  1.0 0.0217743046
C  C74  1  0.01560000  0.07800000  0.95300000  1.0 0.0217743046
C  C75  1  0.85600000  0.91160000  0.48090000  1.0 -0.1715802972
C  C76  1  0.08840000  0.14400000  0.98090000  1.0 -0.1715802972
C  C77  1  0.81190000  0.92770000  0.50200000  1.0 0.0600385258
C  C78  1  0.07230000  0.18810000  0.00200000  1.0 0.0600385258
C  C79  1  0.84020000  0.01900000  0.49610000  1.0 -0.1594848932
C  C80  1  0.98100000  0.15980000  0.99610000  1.0 -0.1594848932
C  C81  1  0.90820000  0.08900000  0.46810000  1.0 0.0281292227
C  C82  1  0.91100000  0.09180000  0.96810000  1.0 0.0281292227
C  C83  1  0.73600000  0.84780000  0.53060000  1.0 0.33113638
C  C84  1  0.15220000  0.26400000  0.03060000  1.0 0.33113638
C  C85  1  0.64420000  0.69120000  0.55730000  1.0 0.3595428622
C  C86  1  0.30880000  0.35580000  0.05730000  1.0 0.3595428622
C  C87  1  0.64350000  0.79430000  0.58200000  1.0 0.3495444003
C  C88  1  0.20570000  0.35650000  0.08200000  1.0 0.3495444003
C  C89  1  0.53710000  0.87170000  0.62560000  1.0 0.0503537139
C  C90  1  0.12830000  0.46290000  0.12560000  1.0 0.0503537139
C  C91  1  0.58010000  0.86590000  0.59870000  1.0 -0.1594848932
C  C92  1  0.13410000  0.41990000  0.09870000  1.0 -0.1594848932
C  C93  1  0.60310000  0.80790000  0.61070000  1.0 0.0600385258
C  C94  1  0.19210000  0.39690000  0.11070000  1.0 0.0600385258
C  C95  1  0.58220000  0.75620000  0.65100000  1.0 -0.1594848932
C  C96  1  0.24380000  0.41780000  0.15100000  1.0 -0.1594848932
C  C97  1  0.54120000  0.76880000  0.67640000  1.0 0.0600385258
C  C98  1  0.23120000  0.45880000  0.17640000  1.0 0.0600385258
C  C99  1  0.53170000  0.43310000  0.58810000  1.0 0.0503537139
C  C100  1  0.56690000  0.46830000  0.08810000  1.0 0.0503537139
C  C101  1  0.55560000  0.52020000  0.58760000  1.0 -0.1594848932
C  C102  1  0.47980000  0.44440000  0.08760000  1.0 -0.1594848932
C  C103  1  0.61020000  0.59340000  0.55730000  1.0 0.0503537139
C  C104  1  0.40660000  0.38980000  0.05730000  1.0 0.0503537139
C  C105  1  0.62950000  0.57170000  0.52570000  1.0 -0.1715802972
C  C106  1  0.42830000  0.37050000  0.02570000  1.0 -0.1715802972
C  C107  1  0.60060000  0.48140000  0.52730000  1.0 0.0600385258
C  C108  1  0.51860000  0.39940000  0.02730000  1.0 0.0600385258
C  C109  1  0.72030000  0.39150000  0.61060000  1.0 0.0600385258
C  C110  1  0.60850000  0.27970000  0.11060000  1.0 0.0600385258
C  C111  1  0.79610000  0.40890000  0.63780000  1.0 -0.1715802972
C  C112  1  0.59110000  0.20390000  0.13780000  1.0 -0.1715802972
C  C113  1  0.77900000  0.33560000  0.66770000  1.0 0.0503537139
C  C114  1  0.66440000  0.22100000  0.16770000  1.0 0.0503537139
C  C115  1  0.68410000  0.24770000  0.66950000  1.0 -0.1594848932
C  C116  1  0.75230000  0.31590000  0.16950000  1.0 -0.1594848932
C  C117  1  0.61240000  0.23680000  0.64070000  1.0 0.0503537139
C  C118  1  0.76320000  0.38760000  0.14070000  1.0 0.0503537139
C  C119  1  0.85990000  0.35070000  0.69690000  1.0 0.3700041293
C  C120  1  0.64930000  0.14010000  0.19690000  1.0 0.3700041293
C  C121  1  0.01880000  0.43880000  0.71720000  1.0 0.3495444003
C  C122  1  0.56120000  0.98120000  0.21720000  1.0 0.3495444003
C  C123  1  0.90960000  0.29380000  0.75290000  1.0 0.3595428622
C  C124  1  0.70620000  0.09040000  0.25290000  1.0 0.3595428622
C  C125  1  0.77770000  0.06830000  0.82880000  1.0 0.0217743046
C  C126  1  0.93170000  0.22230000  0.32880000  1.0 0.0217743046
C  C127  1  0.79440000  0.13740000  0.79630000  1.0 -0.1516608851
C  C128  1  0.86260000  0.20560000  0.29630000  1.0 -0.1516608851
C  C129  1  0.88690000  0.21690000  0.78780000  1.0 0.0600385258
C  C130  1  0.78310000  0.11310000  0.28780000  1.0 0.0600385258
C  C131  1  0.96090000  0.22690000  0.81290000  1.0 -0.1594848932
C  C132  1  0.77310000  0.03910000  0.31290000  1.0 -0.1594848932
C  C133  1  0.93970000  0.15510000  0.84470000  1.0 0.0414037264
C  C134  1  0.84490000  0.06030000  0.34470000  1.0 0.0414037264
C  C135  1  0.28720000  0.63560000  0.73930000  1.0 0.0414037264
C  C136  1  0.36440000  0.71280000  0.23930000  1.0 0.0414037264
C  C137  1  0.19390000  0.54890000  0.74380000  1.0 -0.1594848932
C  C138  1  0.45110000  0.80610000  0.24380000  1.0 -0.1594848932
C  C139  1  0.12210000  0.53050000  0.71300000  1.0 0.0503537139
C  C140  1  0.46950000  0.87790000  0.21300000  1.0 0.0503537139
C  C141  1  0.14870000  0.59970000  0.67950000  1.0 -0.1715802972
C  C142  1  0.40030000  0.85130000  0.17950000  1.0 -0.1715802972
C  C143  1  0.24370000  0.68290000  0.67780000  1.0 0.0414037264
C  C144  1  0.31710000  0.75630000  0.17780000  1.0 0.0414037264
I  I1  1  0.84753000  0.54273000  0.72347000  1.0 -0.0373390558
I  I2  1  0.45727000  0.15247000  0.22347000  1.0 -0.0373390558
I  I3  1  0.96672000  0.44868000  0.82775000  1.0 0.0281292227
I  I4  1  0.55132000  0.03328000  0.32775000  1.0 0.0281292227
I  I5  1  0.34013000  0.13067000  0.08410000  1.0 -0.0373390558
I  I6  1  0.86933000  0.65987000  0.58410000  1.0 -0.0373390558
I  I7  1  0.11004000  0.10136000  0.12818000  1.0 -0.0055543616
I  I8  1  0.89864000  0.88996000  0.62818000  1.0 -0.0026887968
I  I9  1  0.14667000  0.36113000  0.90590000  1.0 -0.0026887968
I  I10  1  0.63887000  0.85333000  0.40590000  1.0 -0.0026887968
I  I11  1  0.27570000  0.55910000  0.00380000  1.0 -0.3970169084
I  I12  1  0.44090000  0.72430000  0.50380000  1.0 -0.3970169084
I  I13  1  0.79660000  0.54460000  0.70838000  1.0 0.0414037264
I  I14  1  0.45540000  0.20340000  0.20838000  1.0 0.0414037264
I  I15  1  0.96659000  0.48861000  0.80250000  1.0 -0.0026887968
I  I16  1  0.51139000  0.03341000  0.30250000  1.0 -0.0055543616
I  I17  1  0.34310000  0.13410000  0.07142000  1.0 -0.0026887968
I  I18  1  0.86590000  0.65690000  0.57142000  1.0 -0.0026887968
I  I19  1  0.13674000  0.11266000  0.12980000  1.0 -0.0373390558
I  I20  1  0.88734000  0.86326000  0.62980000  1.0 -0.0373390558
I  I21  1  0.16210000  0.36730000  0.89870000  1.0 -0.0026887968
I  I22  1  0.63270000  0.83790000  0.39870000  1.0 -0.0026887968
I  I23  1  0.28680000  0.57660000  0.00150000  1.0 -0.413853641
I  I24  1  0.42340000  0.71320000  0.50150000  1.0 -0.413853641
I  I25  1  0.54273000  0.84753000  0.77653000  1.0 -0.0373390558
I  I26  1  0.15247000  0.45727000  0.27653000  1.0 -0.0373390558
I  I27  1  0.44868000  0.96672000  0.67225000  1.0 0.0217743046
I  I28  1  0.03328000  0.55132000  0.17225000  1.0 0.0281292227
I  I29  1  0.13067000  0.34013000  0.41590000  1.0 -0.0373390558
I  I30  1  0.65987000  0.86933000  0.91590000  1.0 -0.0373390558
I  I31  1  0.10136000  0.11004000  0.37182000  1.0 -0.0055543616
I  I32  1  0.88996000  0.89864000  0.87182000  1.0 -0.0026887968
I  I33  1  0.36113000  0.14667000  0.59410000  1.0 -0.0026887968
I  I34  1  0.85333000  0.63887000  0.09410000  1.0 -0.0026887968
I  I35  1  0.55910000  0.27570000  0.49620000  1.0 -0.3970169084
I  I36  1  0.72430000  0.44090000  0.99620000  1.0 -0.3970169084
I  I37  1  0.54460000  0.79660000  0.79162000  1.0 0.0414037264
I  I38  1  0.20340000  0.45540000  0.29162000  1.0 0.0414037264
I  I39  1  0.48861000  0.96659000  0.69750000  1.0 -0.0026887968
I  I40  1  0.03341000  0.51139000  0.19750000  1.0 -0.0026887968
I  I41  1  0.13410000  0.34310000  0.42858000  1.0 -0.0026887968
I  I42  1  0.65690000  0.86590000  0.92858000  1.0 -0.0026887968
I  I43  1  0.11266000  0.13674000  0.37020000  1.0 -0.0373390558
I  I44  1  0.86326000  0.88734000  0.87020000  1.0 -0.0373390558
I  I45  1  0.36730000  0.16210000  0.60130000  1.0 -0.0026887968
I  I46  1  0.83790000  0.63270000  0.10130000  1.0 -0.0026887968
I  I47  1  0.57660000  0.28680000  0.49850000  1.0 -0.413853641
I  I48  1  0.71320000  0.42340000  0.99850000  1.0 -0.413853641
N  N1  1  0.82160000  0.51560000  0.83580000  1.0 -0.1894858943
N  N2  1  0.48440000  0.17840000  0.33580000  1.0 -0.1812561349
N  N3  1  0.07189000  0.94731000  0.05409000  1.0 -0.2212112353
N  N4  1  0.05269000  0.92811000  0.55409000  1.0 -0.2212112353
N  N5  1  0.41312000  0.55368000  0.94090000  1.0 -0.1894858943
N  N6  1  0.44632000  0.58688000  0.44090000  1.0 -0.1894858943
N  N7  1  0.86804000  0.70396000  0.94474000  1.0 -0.4243032293
N  N8  1  0.29604000  0.13196000  0.44474000  1.0 -0.4243032293
N  N9  1  0.76063000  0.70617000  0.97120000  1.0 -0.4512239055
N  N10  1  0.29383000  0.23937000  0.47120000  1.0 -0.4512239055
N  N11  1  0.70461000  0.61339000  0.91410000  1.0 -0.4313702093
N  N12  1  0.38661000  0.29539000  0.41410000  1.0 -0.4313702093
N  N13  1  0.30700000  0.62880000  0.88860000  1.0 -0.1812561349
N  N14  1  0.37120000  0.69300000  0.38860000  1.0 -0.1812561349
N  N15  1  0.27925000  0.83435000  0.77151000  1.0 -0.4413568967
N  N16  1  0.16565000  0.72075000  0.27151000  1.0 -0.4413568967
N  N17  1  0.43138000  0.95022000  0.80995000  1.0 -0.4313702093
N  N18  1  0.04978000  0.56862000  0.30995000  1.0 -0.4313702093
N  N19  1  0.37182000  0.00318000  0.75132000  1.0 -0.4413568967
N  N20  1  0.99682000  0.62818000  0.25132000  1.0 -0.4413568967
N  N21  1  0.70050000  0.31250000  0.79300000  1.0 -0.1812561349
N  N22  1  0.68750000  0.29950000  0.29300000  1.0 -0.1812561349
N  N23  1  0.07620000  0.85000000  0.64740000  1.0 -0.1894858943
N  N24  1  0.15000000  0.92380000  0.14740000  1.0 -0.1812561349
N  N25  1  0.51560000  0.82160000  0.66420000  1.0 -0.1894858943
N  N26  1  0.17840000  0.48440000  0.16420000  1.0 -0.1894858943
N  N27  1  0.94731000  0.07189000  0.44591000  1.0 -0.2212112353
N  N28  1  0.92811000  0.05269000  0.94591000  1.0 -0.2212112353
N  N29  1  0.55368000  0.41312000  0.55910000  1.0 -0.1894858943
N  N30  1  0.58688000  0.44632000  0.05910000  1.0 -0.1894858943
N  N31  1  0.70396000  0.86804000  0.55526000  1.0 -0.4243032293
N  N32  1  0.13196000  0.29604000  0.05526000  1.0 -0.4243032293
N  N33  1  0.70617000  0.76063000  0.52880000  1.0 -0.4512239055
N  N34  1  0.23937000  0.29383000  0.02880000  1.0 -0.4512239055
N  N35  1  0.61339000  0.70461000  0.58590000  1.0 -0.4313702093
N  N36  1  0.29539000  0.38661000  0.08590000  1.0 -0.4313702093
N  N37  1  0.62880000  0.30700000  0.61140000  1.0 -0.1812561349
N  N38  1  0.69300000  0.37120000  0.11140000  1.0 -0.1812561349
N  N39  1  0.83435000  0.27925000  0.72849000  1.0 -0.4413568967
N  N40  1  0.72075000  0.16565000  0.22849000  1.0 -0.4413568967
N  N41  1  0.95022000  0.43138000  0.69005000  1.0 -0.4313702093
N  N42  1  0.56862000  0.04978000  0.19005000  1.0 -0.4313702093
N  N43  1  0.00318000  0.37182000  0.74868000  1.0 -0.4413568967
N  N44  1  0.62818000  0.99682000  0.24868000  1.0 -0.4413568967
N  N45  1  0.31250000  0.70050000  0.70700000  1.0 -0.1812561349
N  N46  1  0.29950000  0.68750000  0.20700000  1.0 -0.1812561349
N  N47  1  0.85000000  0.07620000  0.85260000  1.0 -0.1894858943
N  N48  1  0.92380000  0.15000000  0.35260000  1.0 -0.1894858943
