# DDEC6 charges by PACMAN v1.1 (https://github.com/mtap-research/PACMAN-charge/)
data_ZOQTAC_ASR_pacman
_symmetry_space_group_name_H-M   'P 1'
_cell_length_a   19.00580000
_cell_length_b   19.00580000
_cell_length_c   30.82500000
_cell_angle_alpha   78.19890000
_cell_angle_beta   101.80100000
_cell_angle_gamma   133.58600000
_symmetry_Int_Tables_number   1
_chemical_formula_structural   ZnH4C6(IN)2
_chemical_formula_sum   'Zn24 H96 C144 I48 N48'
_cell_volume   7863.04594751
_cell_formula_units_Z   24
loop_
 _symmetry_equiv_pos_site_id
 _symmetry_equiv_pos_as_xyz
  1  'x, y, z'
loop_
 _atom_site_type_symbol
 _atom_site_label
 _atom_site_symmetry_multiplicity
 _atom_site_fract_x
 _atom_site_fract_y
 _atom_site_fract_z
 _atom_site_occupancy
 _atom_site_charge
Zn  Zn1  1  0.16850000  0.53810000  0.21270000  1.0 0.1998177588
Zn  Zn2  1  0.46190000  0.83150000  0.71270000  1.0 0.1998177588
Zn  Zn3  1  0.72520000  0.47600000  0.05930000  1.0 0.3711408142
Zn  Zn4  1  0.52400000  0.27480000  0.55930000  1.0 0.3711408142
Zn  Zn5  1  0.81364000  0.95554000  0.89990000  1.0 0.240024573
Zn  Zn6  1  0.04446000  0.18636000  0.39990000  1.0 0.234363756
Zn  Zn7  1  0.18350000  0.53010000  0.22230000  1.0 0.1998177588
Zn  Zn8  1  0.46990000  0.81650000  0.72230000  1.0 0.1998177588
Zn  Zn9  1  0.73170000  0.48870000  0.06590000  1.0 0.3773587856
Zn  Zn10  1  0.51130000  0.26830000  0.56590000  1.0 0.3773587856
Zn  Zn11  1  0.79720000  0.96220000  0.90590000  1.0 0.2455541704
Zn  Zn12  1  0.03780000  0.20280000  0.40590000  1.0 0.240024573
Zn  Zn13  1  0.53810000  0.16850000  0.28730000  1.0 0.1998177588
Zn  Zn14  1  0.83150000  0.46190000  0.78730000  1.0 0.1998177588
Zn  Zn15  1  0.47600000  0.72520000  0.44070000  1.0 0.3711408142
Zn  Zn16  1  0.27480000  0.52400000  0.94070000  1.0 0.3711408142
Zn  Zn17  1  0.95554000  0.81364000  0.60010000  1.0 0.240024573
Zn  Zn18  1  0.18636000  0.04446000  0.10010000  1.0 0.234363756
Zn  Zn19  1  0.53010000  0.18350000  0.27770000  1.0 0.1998177588
Zn  Zn20  1  0.81650000  0.46990000  0.77770000  1.0 0.1998177588
Zn  Zn21  1  0.48870000  0.73170000  0.43410000  1.0 0.3773587856
Zn  Zn22  1  0.26830000  0.51130000  0.93410000  1.0 0.3773587856
Zn  Zn23  1  0.96220000  0.79720000  0.59410000  1.0 0.2455541704
Zn  Zn24  1  0.20280000  0.03780000  0.09410000  1.0 0.240024573
H  H1  1  0.99100000  0.29720000  0.33920000  1.0 0.0502639766
H  H2  1  0.70280000  0.00900000  0.83920000  1.0 0.0502639766
H  H3  1  0.87170000  0.26530000  0.28330000  1.0 0.0974501795
H  H4  1  0.73470000  0.12830000  0.78330000  1.0 0.0974501795
H  H5  1  0.73510000  0.98030000  0.30410000  1.0 0.0974501795
H  H6  1  0.01970000  0.26490000  0.80410000  1.0 0.0974501795
H  H7  1  0.86050000  0.02210000  0.35770000  1.0 0.0583247773
H  H8  1  0.97790000  0.13950000  0.85770000  1.0 0.0583247773
H  H9  1  0.57220000  0.26360000  0.07780000  1.0 0.0688052554
H  H10  1  0.73640000  0.42780000  0.57780000  1.0 0.0688052554
H  H11  1  0.54050000  0.13550000  0.12350000  1.0 0.1120523471
H  H12  1  0.86450000  0.45950000  0.62350000  1.0 0.1120523471
H  H13  1  0.79140000  0.33120000  0.19850000  1.0 0.0974501795
H  H14  1  0.66880000  0.20860000  0.69850000  1.0 0.0974501795
H  H15  1  0.81260000  0.45420000  0.14870000  1.0 0.0502639766
H  H16  1  0.54580000  0.18740000  0.64870000  1.0 0.0502639766
H  H17  1  0.37360000  0.66140000  0.26210000  1.0 0.0583247773
H  H18  1  0.33860000  0.62640000  0.76210000  1.0 0.0583247773
H  H19  1  0.52110000  0.82290000  0.26220000  1.0 0.1120523471
H  H20  1  0.17710000  0.47890000  0.76220000  1.0 0.1120523471
H  H21  1  0.39540000  0.89360000  0.16430000  1.0 0.116408496
H  H22  1  0.10640000  0.60460000  0.66430000  1.0 0.116408496
H  H23  1  0.25320000  0.72940000  0.16810000  1.0 0.0688052554
H  H24  1  0.27060000  0.74680000  0.66810000  1.0 0.0688052554
H  H25  1  0.07070000  0.42970000  0.13300000  1.0 0.0583247773
H  H26  1  0.57030000  0.92930000  0.63300000  1.0 0.0583247773
H  H27  1  0.08200000  0.35620000  0.08670000  1.0 0.1120523471
H  H28  1  0.64380000  0.91800000  0.58670000  1.0 0.1120523471
H  H29  1  0.33690000  0.45910000  0.15680000  1.0 0.116408496
H  H30  1  0.54090000  0.66310000  0.65680000  1.0 0.116408496
H  H31  1  0.31560000  0.52340000  0.20130000  1.0 0.0688052554
H  H32  1  0.47660000  0.68440000  0.70130000  1.0 0.0688052554
H  H33  1  0.63310000  0.51290000  0.10940000  1.0 0.0502639766
H  H34  1  0.48710000  0.36690000  0.60940000  1.0 0.0502639766
H  H35  1  0.48140000  0.45940000  0.11290000  1.0 0.116408496
H  H36  1  0.54060000  0.51860000  0.61290000  1.0 0.116408496
H  H37  1  0.39390000  0.34490000  0.99520000  1.0 0.1120523471
H  H38  1  0.65510000  0.60610000  0.49520000  1.0 0.1120523471
H  H39  1  0.54510000  0.39470000  0.99690000  1.0 0.0688052554
H  H40  1  0.60530000  0.45490000  0.49690000  1.0 0.0688052554
H  H41  1  0.85280000  0.06580000  0.97260000  1.0 0.0583247773
H  H42  1  0.93420000  0.14720000  0.47260000  1.0 0.0583247773
H  H43  1  0.98150000  0.18410000  0.01860000  1.0 0.116408496
H  H44  1  0.81590000  0.01850000  0.51860000  1.0 0.116408496
H  H45  1  0.15240000  0.16000000  0.97820000  1.0 0.1120523471
H  H46  1  0.84000000  0.84760000  0.47820000  1.0 0.1120523471
H  H47  1  0.02100000  0.04420000  0.93260000  1.0 0.0688052554
H  H48  1  0.95580000  0.97900000  0.43260000  1.0 0.0688052554
H  H49  1  0.29720000  0.99100000  0.16080000  1.0 0.0502639766
H  H50  1  0.00900000  0.70280000  0.66080000  1.0 0.0502639766
H  H51  1  0.26530000  0.87170000  0.21670000  1.0 0.0974501795
H  H52  1  0.12830000  0.73470000  0.71670000  1.0 0.0974501795
H  H53  1  0.98030000  0.73510000  0.19590000  1.0 0.0974501795
H  H54  1  0.26490000  0.01970000  0.69590000  1.0 0.0974501795
H  H55  1  0.02210000  0.86050000  0.14230000  1.0 0.0583247773
H  H56  1  0.13950000  0.97790000  0.64230000  1.0 0.0583247773
H  H57  1  0.26360000  0.57220000  0.42220000  1.0 0.0688052554
H  H58  1  0.42780000  0.73640000  0.92220000  1.0 0.0688052554
H  H59  1  0.13550000  0.54050000  0.37650000  1.0 0.1120523471
H  H60  1  0.45950000  0.86450000  0.87650000  1.0 0.1120523471
H  H61  1  0.33120000  0.79140000  0.30150000  1.0 0.0974501795
H  H62  1  0.20860000  0.66880000  0.80150000  1.0 0.0974501795
H  H63  1  0.45420000  0.81260000  0.35130000  1.0 0.0502639766
H  H64  1  0.18740000  0.54580000  0.85130000  1.0 0.0502639766
H  H65  1  0.66140000  0.37360000  0.23790000  1.0 0.0583247773
H  H66  1  0.62640000  0.33860000  0.73790000  1.0 0.0583247773
H  H67  1  0.82290000  0.52110000  0.23780000  1.0 0.1120523471
H  H68  1  0.47890000  0.17710000  0.73780000  1.0 0.1120523471
H  H69  1  0.89360000  0.39540000  0.33570000  1.0 0.116408496
H  H70  1  0.60460000  0.10640000  0.83570000  1.0 0.116408496
H  H71  1  0.72940000  0.25320000  0.33190000  1.0 0.0688052554
H  H72  1  0.74680000  0.27060000  0.83190000  1.0 0.0688052554
H  H73  1  0.42970000  0.07070000  0.36700000  1.0 0.0583247773
H  H74  1  0.92930000  0.57030000  0.86700000  1.0 0.0583247773
H  H75  1  0.35620000  0.08200000  0.41330000  1.0 0.1120523471
H  H76  1  0.91800000  0.64380000  0.91330000  1.0 0.1120523471
H  H77  1  0.45910000  0.33690000  0.34320000  1.0 0.116408496
H  H78  1  0.66310000  0.54090000  0.84320000  1.0 0.116408496
H  H79  1  0.52340000  0.31560000  0.29870000  1.0 0.0688052554
H  H80  1  0.68440000  0.47660000  0.79870000  1.0 0.0688052554
H  H81  1  0.51290000  0.63310000  0.39060000  1.0 0.0502639766
H  H82  1  0.36690000  0.48710000  0.89060000  1.0 0.0502639766
H  H83  1  0.45940000  0.48140000  0.38710000  1.0 0.116408496
H  H84  1  0.51860000  0.54060000  0.88710000  1.0 0.116408496
H  H85  1  0.34490000  0.39390000  0.50480000  1.0 0.1120523471
H  H86  1  0.60610000  0.65510000  0.00480000  1.0 0.1120523471
H  H87  1  0.39470000  0.54510000  0.50310000  1.0 0.0688052554
H  H88  1  0.45490000  0.60530000  0.00310000  1.0 0.0688052554
H  H89  1  0.06580000  0.85280000  0.52740000  1.0 0.0583247773
H  H90  1  0.14720000  0.93420000  0.02740000  1.0 0.0583247773
H  H91  1  0.18410000  0.98150000  0.48140000  1.0 0.116408496
H  H92  1  0.01850000  0.81590000  0.98140000  1.0 0.116408496
H  H93  1  0.16000000  0.15240000  0.52180000  1.0 0.1120523471
H  H94  1  0.84760000  0.84000000  0.02180000  1.0 0.1120523471
H  H95  1  0.04420000  0.02100000  0.56740000  1.0 0.0688052554
H  H96  1  0.97900000  0.95580000  0.06740000  1.0 0.0688052554
C  C1  1  0.93790000  0.23210000  0.33180000  1.0 0.0108561147
C  C2  1  0.76790000  0.06210000  0.83180000  1.0 0.0108561147
C  C3  1  0.86720000  0.21360000  0.29840000  1.0 -0.1784723487
C  C4  1  0.78640000  0.13280000  0.79840000  1.0 -0.1784723487
C  C5  1  0.78990000  0.11870000  0.28720000  1.0 0.0502639766
C  C6  1  0.88130000  0.21010000  0.78720000  1.0 0.0502639766
C  C7  1  0.78720000  0.04640000  0.31040000  1.0 -0.1784723487
C  C8  1  0.95360000  0.21280000  0.81040000  1.0 -0.1784723487
C  C9  1  0.86150000  0.07170000  0.34280000  1.0 0.0412151083
C  C10  1  0.92830000  0.13850000  0.84280000  1.0 0.0412151083
C  C11  1  0.71250000  0.09370000  0.25150000  1.0 0.3394046415
C  C12  1  0.90630000  0.28750000  0.75150000  1.0 0.3394046415
C  C13  1  0.65170000  0.13930000  0.19630000  1.0 0.3394046415
C  C14  1  0.86070000  0.34830000  0.69630000  1.0 0.3394046415
C  C15  1  0.56570000  0.98010000  0.21650000  1.0 0.3317950133
C  C16  1  0.01990000  0.43430000  0.71650000  1.0 0.3317950133
C  C17  1  0.61750000  0.27690000  0.10270000  1.0 0.0204675471
C  C18  1  0.72310000  0.38250000  0.60270000  1.0 0.0204675471
C  C19  1  0.59800000  0.20040000  0.12950000  1.0 -0.1709231697
C  C20  1  0.79960000  0.40200000  0.62950000  1.0 -0.1709231697
C  C21  1  0.66360000  0.21800000  0.16620000  1.0 0.0502639766
C  C22  1  0.78200000  0.33640000  0.66620000  1.0 0.0502639766
C  C23  1  0.74520000  0.31500000  0.17360000  1.0 -0.1709231697
C  C24  1  0.68500000  0.25480000  0.67360000  1.0 -0.1709231697
C  C25  1  0.75720000  0.38800000  0.14360000  1.0 0.029319449
C  C26  1  0.61200000  0.24280000  0.64360000  1.0 0.029319449
C  C27  1  0.37900000  0.70940000  0.24160000  1.0 0.029319449
C  C28  1  0.29060000  0.62100000  0.74160000  1.0 0.029319449
C  C29  1  0.46700000  0.80580000  0.24230000  1.0 -0.1644904401
C  C30  1  0.19420000  0.53300000  0.74230000  1.0 -0.1644904401
C  C31  1  0.47430000  0.87630000  0.21360000  1.0 0.0412151083
C  C32  1  0.12370000  0.52570000  0.71360000  1.0 0.0412151083
C  C33  1  0.39340000  0.84760000  0.18480000  1.0 -0.1784723487
C  C34  1  0.15240000  0.60660000  0.68480000  1.0 -0.1784723487
C  C35  1  0.30920000  0.74900000  0.18710000  1.0 0.0502639766
C  C36  1  0.25100000  0.69080000  0.68710000  1.0 0.0502639766
C  C37  1  0.12500000  0.43480000  0.13790000  1.0 0.0412151083
C  C38  1  0.56520000  0.87500000  0.63790000  1.0 0.0412151083
C  C39  1  0.13210000  0.39230000  0.10980000  1.0 -0.1784723487
C  C40  1  0.60770000  0.86790000  0.60980000  1.0 -0.1784723487
C  C41  1  0.21320000  0.40280000  0.11540000  1.0 0.0412151083
C  C42  1  0.59720000  0.78680000  0.61540000  1.0 0.0412151083
C  C43  1  0.28130000  0.45210000  0.15110000  1.0 -0.1709231697
C  C44  1  0.54790000  0.71870000  0.65110000  1.0 -0.1709231697
C  C45  1  0.26790000  0.48950000  0.17720000  1.0 0.029319449
C  C46  1  0.51050000  0.73210000  0.67720000  1.0 0.029319449
C  C47  1  0.22530000  0.36150000  0.08450000  1.0 0.3394046415
C  C48  1  0.63850000  0.77470000  0.58450000  1.0 0.3394046415
C  C49  1  0.16380000  0.26280000  0.03100000  1.0 0.3174000297
C  C50  1  0.73720000  0.83620000  0.53100000  1.0 0.3174000297
C  C51  1  0.32320000  0.36000000  0.05530000  1.0 0.3317950133
C  C52  1  0.64000000  0.67680000  0.55530000  1.0 0.3317950133
C  C53  1  0.58200000  0.47460000  0.08700000  1.0 0.029319449
C  C54  1  0.52540000  0.41800000  0.58700000  1.0 0.029319449
C  C55  1  0.49290000  0.44530000  0.08880000  1.0 -0.1709231697
C  C56  1  0.55470000  0.50710000  0.58880000  1.0 -0.1709231697
C  C57  1  0.41990000  0.39410000  0.05420000  1.0 0.0502639766
C  C58  1  0.60590000  0.58010000  0.55420000  1.0 0.0502639766
C  C59  1  0.44100000  0.37680000  0.01970000  1.0 -0.1709231697
C  C60  1  0.62320000  0.55900000  0.51970000  1.0 -0.1709231697
C  C61  1  0.53110000  0.40650000  0.02100000  1.0 0.029319449
C  C62  1  0.59350000  0.46890000  0.52100000  1.0 0.029319449
C  C63  1  0.91480000  0.08620000  0.97340000  1.0 0.0108561147
C  C64  1  0.91380000  0.08520000  0.47340000  1.0 0.0108561147
C  C65  1  0.99110000  0.15630000  0.00090000  1.0 -0.1709231697
C  C66  1  0.84370000  0.00890000  0.50090000  1.0 -0.1709231697
C  C67  1  0.08010000  0.18570000  0.00270000  1.0 0.029319449
C  C68  1  0.81430000  0.91990000  0.50270000  1.0 0.029319449
C  C69  1  0.09170000  0.14230000  0.97710000  1.0 -0.1913277257
C  C70  1  0.85770000  0.90830000  0.47710000  1.0 -0.1913277257
C  C71  1  0.01310000  0.07370000  0.95020000  1.0 0.0204675471
C  C72  1  0.92630000  0.98690000  0.45020000  1.0 0.0204675471
C  C73  1  0.23210000  0.93790000  0.16820000  1.0 0.0108561147
C  C74  1  0.06210000  0.76790000  0.66820000  1.0 0.0108561147
C  C75  1  0.21360000  0.86720000  0.20160000  1.0 -0.1784723487
C  C76  1  0.13280000  0.78640000  0.70160000  1.0 -0.1784723487
C  C77  1  0.11870000  0.78990000  0.21280000  1.0 0.0502639766
C  C78  1  0.21010000  0.88130000  0.71280000  1.0 0.0502639766
C  C79  1  0.04640000  0.78720000  0.18960000  1.0 -0.1784723487
C  C80  1  0.21280000  0.95360000  0.68960000  1.0 -0.1784723487
C  C81  1  0.07170000  0.86150000  0.15720000  1.0 0.0412151083
C  C82  1  0.13850000  0.92830000  0.65720000  1.0 0.0412151083
C  C83  1  0.09370000  0.71250000  0.24850000  1.0 0.3394046415
C  C84  1  0.28750000  0.90630000  0.74850000  1.0 0.3394046415
C  C85  1  0.13930000  0.65170000  0.30370000  1.0 0.3394046415
C  C86  1  0.34830000  0.86070000  0.80370000  1.0 0.3394046415
C  C87  1  0.98010000  0.56570000  0.28350000  1.0 0.3317950133
C  C88  1  0.43430000  0.01990000  0.78350000  1.0 0.3317950133
C  C89  1  0.27690000  0.61750000  0.39730000  1.0 0.0204675471
C  C90  1  0.38250000  0.72310000  0.89730000  1.0 0.0204675471
C  C91  1  0.20040000  0.59800000  0.37050000  1.0 -0.1709231697
C  C92  1  0.40200000  0.79960000  0.87050000  1.0 -0.1709231697
C  C93  1  0.21800000  0.66360000  0.33380000  1.0 0.0502639766
C  C94  1  0.33640000  0.78200000  0.83380000  1.0 0.0502639766
C  C95  1  0.31500000  0.74520000  0.32640000  1.0 -0.1709231697
C  C96  1  0.25480000  0.68500000  0.82640000  1.0 -0.1709231697
C  C97  1  0.38800000  0.75720000  0.35640000  1.0 0.029319449
C  C98  1  0.24280000  0.61200000  0.85640000  1.0 0.029319449
C  C99  1  0.70940000  0.37900000  0.25840000  1.0 0.029319449
C  C100  1  0.62100000  0.29060000  0.75840000  1.0 0.029319449
C  C101  1  0.80580000  0.46700000  0.25770000  1.0 -0.1644904401
C  C102  1  0.53300000  0.19420000  0.75770000  1.0 -0.1644904401
C  C103  1  0.87630000  0.47430000  0.28640000  1.0 0.0412151083
C  C104  1  0.52570000  0.12370000  0.78640000  1.0 0.0412151083
C  C105  1  0.84760000  0.39340000  0.31520000  1.0 -0.1784723487
C  C106  1  0.60660000  0.15240000  0.81520000  1.0 -0.1784723487
C  C107  1  0.74900000  0.30920000  0.31290000  1.0 0.0502639766
C  C108  1  0.69080000  0.25100000  0.81290000  1.0 0.0502639766
C  C109  1  0.43480000  0.12500000  0.36210000  1.0 0.0412151083
C  C110  1  0.87500000  0.56520000  0.86210000  1.0 0.0412151083
C  C111  1  0.39230000  0.13210000  0.39020000  1.0 -0.1784723487
C  C112  1  0.86790000  0.60770000  0.89020000  1.0 -0.1784723487
C  C113  1  0.40280000  0.21320000  0.38460000  1.0 0.0412151083
C  C114  1  0.78680000  0.59720000  0.88460000  1.0 0.0412151083
C  C115  1  0.45210000  0.28130000  0.34890000  1.0 -0.1709231697
C  C116  1  0.71870000  0.54790000  0.84890000  1.0 -0.1709231697
C  C117  1  0.48950000  0.26790000  0.32280000  1.0 0.029319449
C  C118  1  0.73210000  0.51050000  0.82280000  1.0 0.029319449
C  C119  1  0.36150000  0.22530000  0.41550000  1.0 0.3394046415
C  C120  1  0.77470000  0.63850000  0.91550000  1.0 0.3394046415
C  C121  1  0.26280000  0.16380000  0.46900000  1.0 0.3174000297
C  C122  1  0.83620000  0.73720000  0.96900000  1.0 0.3174000297
C  C123  1  0.36000000  0.32320000  0.44470000  1.0 0.3317950133
C  C124  1  0.67680000  0.64000000  0.94470000  1.0 0.3317950133
C  C125  1  0.47460000  0.58200000  0.41300000  1.0 0.029319449
C  C126  1  0.41800000  0.52540000  0.91300000  1.0 0.029319449
C  C127  1  0.44530000  0.49290000  0.41120000  1.0 -0.1709231697
C  C128  1  0.50710000  0.55470000  0.91120000  1.0 -0.1709231697
C  C129  1  0.39410000  0.41990000  0.44580000  1.0 0.0502639766
C  C130  1  0.58010000  0.60590000  0.94580000  1.0 0.0502639766
C  C131  1  0.37680000  0.44100000  0.48030000  1.0 -0.1709231697
C  C132  1  0.55900000  0.62320000  0.98030000  1.0 -0.1709231697
C  C133  1  0.40650000  0.53110000  0.47900000  1.0 0.029319449
C  C134  1  0.46890000  0.59350000  0.97900000  1.0 0.029319449
C  C135  1  0.08620000  0.91480000  0.52660000  1.0 0.0108561147
C  C136  1  0.08520000  0.91380000  0.02660000  1.0 0.0108561147
C  C137  1  0.15630000  0.99110000  0.49910000  1.0 -0.1709231697
C  C138  1  0.00890000  0.84370000  0.99910000  1.0 -0.1709231697
C  C139  1  0.18570000  0.08010000  0.49730000  1.0 0.029319449
C  C140  1  0.91990000  0.81430000  0.99730000  1.0 0.029319449
C  C141  1  0.14230000  0.09170000  0.52290000  1.0 -0.1913277257
C  C142  1  0.90830000  0.85770000  0.02290000  1.0 -0.1913277257
C  C143  1  0.07370000  0.01310000  0.54980000  1.0 0.0204675471
C  C144  1  0.98690000  0.92630000  0.04980000  1.0 0.0204675471
I  I1  1  0.02881000  0.53059000  0.18216000  1.0 0.0412151083
I  I2  1  0.46941000  0.97119000  0.68216000  1.0 0.0412151083
I  I3  1  0.16994000  0.45586000  0.28856000  1.0 -0.0209469866
I  I4  1  0.54414000  0.83006000  0.78856000  1.0 -0.0209469866
I  I5  1  0.86159000  0.63397000  0.09602000  1.0 -0.0306375795
I  I6  1  0.36603000  0.13841000  0.59602000  1.0 -0.0306375795
I  I7  1  0.72973000  0.43127000  0.98833000  1.0 -0.0306375795
I  I8  1  0.56873000  0.27027000  0.48833000  1.0 -0.0306375795
I  I9  1  0.65662000  0.86534000  0.93378000  1.0 -0.0783989469
I  I10  1  0.13466000  0.34338000  0.43378000  1.0 -0.0783989469
I  I11  1  0.85643000  0.88111000  0.86464000  1.0 -0.0115137658
I  I12  1  0.11889000  0.14357000  0.36464000  1.0 -0.0115137658
I  I13  1  0.03336000  0.50924000  0.19690000  1.0 -0.0306375795
I  I14  1  0.49076000  0.96664000  0.69690000  1.0 -0.0209469866
I  I15  1  0.20242000  0.45718000  0.29693000  1.0 0.0108561147
I  I16  1  0.54282000  0.79758000  0.79693000  1.0 0.0204675471
I  I17  1  0.85250000  0.64630000  0.10330000  1.0 0.0204675471
I  I18  1  0.35370000  0.14750000  0.60330000  1.0 0.0204675471
I  I19  1  0.75810000  0.46070000  0.99720000  1.0 -0.0947251778
I  I20  1  0.53930000  0.24190000  0.49720000  1.0 -0.0953649294
I  I21  1  0.64560000  0.88920000  0.93810000  1.0 -0.0115137658
I  I22  1  0.11080000  0.35440000  0.43810000  1.0 -0.0209469866
I  I23  1  0.81800000  0.87040000  0.86950000  1.0 -0.0739832085
I  I24  1  0.12960000  0.18200000  0.36950000  1.0 -0.0739832085
I  I25  1  0.53059000  0.02881000  0.31784000  1.0 0.0412151083
I  I26  1  0.97119000  0.46941000  0.81784000  1.0 0.0412151083
I  I27  1  0.45586000  0.16994000  0.21144000  1.0 -0.0209469866
I  I28  1  0.83006000  0.54414000  0.71144000  1.0 -0.0209469866
I  I29  1  0.63397000  0.86159000  0.40398000  1.0 -0.0306375795
I  I30  1  0.13841000  0.36603000  0.90398000  1.0 -0.0306375795
I  I31  1  0.43127000  0.72973000  0.51167000  1.0 -0.0306375795
I  I32  1  0.27027000  0.56873000  0.01167000  1.0 -0.0306375795
I  I33  1  0.86534000  0.65662000  0.56622000  1.0 -0.0783989469
I  I34  1  0.34338000  0.13466000  0.06622000  1.0 -0.0783989469
I  I35  1  0.88111000  0.85643000  0.63536000  1.0 -0.0115137658
I  I36  1  0.14357000  0.11889000  0.13536000  1.0 -0.0115137658
I  I37  1  0.50924000  0.03336000  0.30310000  1.0 -0.0306375795
I  I38  1  0.96664000  0.49076000  0.80310000  1.0 -0.0306375795
I  I39  1  0.45718000  0.20242000  0.20307000  1.0 0.0108561147
I  I40  1  0.79758000  0.54282000  0.70307000  1.0 0.0204675471
I  I41  1  0.64630000  0.85250000  0.39670000  1.0 0.0204675471
I  I42  1  0.14750000  0.35370000  0.89670000  1.0 0.0204675471
I  I43  1  0.46070000  0.75810000  0.50280000  1.0 -0.0947251778
I  I44  1  0.24190000  0.53930000  0.00280000  1.0 -0.0953649294
I  I45  1  0.88920000  0.64560000  0.56190000  1.0 -0.0115137658
I  I46  1  0.35440000  0.11080000  0.06190000  1.0 -0.0209469866
I  I47  1  0.87040000  0.81800000  0.63050000  1.0 -0.0739832085
I  I48  1  0.18200000  0.12960000  0.13050000  1.0 -0.0739832085
N  N1  1  0.93380000  0.16180000  0.35390000  1.0 -0.1709231697
N  N2  1  0.83820000  0.06620000  0.85390000  1.0 -0.1709231697
N  N3  1  0.72280000  0.16620000  0.22760000  1.0 -0.4317609541
N  N4  1  0.83380000  0.27720000  0.72760000  1.0 -0.4317609541
N  N5  1  0.57040000  0.04800000  0.18880000  1.0 -0.4509401109
N  N6  1  0.95200000  0.42960000  0.68880000  1.0 -0.4509401109
N  N7  1  0.63570000  0.99830000  0.24690000  1.0 -0.4317609541
N  N8  1  0.00170000  0.36430000  0.74690000  1.0 -0.4317609541
N  N9  1  0.69570000  0.36910000  0.10890000  1.0 -0.2011029346
N  N10  1  0.63090000  0.30430000  0.60890000  1.0 -0.2011029346
N  N11  1  0.30200000  0.68120000  0.21360000  1.0 -0.2011029346
N  N12  1  0.31880000  0.69800000  0.71360000  1.0 -0.2011029346
N  N13  1  0.19150000  0.48250000  0.17150000  1.0 -0.1913277257
N  N14  1  0.51750000  0.80850000  0.67150000  1.0 -0.1913277257
N  N15  1  0.31500000  0.39580000  0.08520000  1.0 -0.459901252
N  N16  1  0.60420000  0.68500000  0.58520000  1.0 -0.459901252
N  N17  1  0.14760000  0.29620000  0.05830000  1.0 -0.4509401109
N  N18  1  0.70380000  0.85240000  0.55830000  1.0 -0.4509401109
N  N19  1  0.25090000  0.29490000  0.02730000  1.0 -0.4509401109
N  N20  1  0.70510000  0.74910000  0.52730000  1.0 -0.4509401109
N  N21  1  0.59870000  0.45090000  0.05450000  1.0 -0.2318547305
N  N22  1  0.54910000  0.40130000  0.55450000  1.0 -0.2318547305
N  N23  1  0.92590000  0.04570000  0.94740000  1.0 -0.2011029346
N  N24  1  0.95430000  0.07410000  0.44740000  1.0 -0.2011029346
N  N25  1  0.16180000  0.93380000  0.14610000  1.0 -0.1709231697
N  N26  1  0.06620000  0.83820000  0.64610000  1.0 -0.1709231697
N  N27  1  0.16620000  0.72280000  0.27240000  1.0 -0.4317609541
N  N28  1  0.27720000  0.83380000  0.77240000  1.0 -0.4317609541
N  N29  1  0.04800000  0.57040000  0.31120000  1.0 -0.4509401109
N  N30  1  0.42960000  0.95200000  0.81120000  1.0 -0.4509401109
N  N31  1  0.99830000  0.63570000  0.25310000  1.0 -0.4357534435
N  N32  1  0.36430000  0.00170000  0.75310000  1.0 -0.4317609541
N  N33  1  0.36910000  0.69570000  0.39110000  1.0 -0.2011029346
N  N34  1  0.30430000  0.63090000  0.89110000  1.0 -0.2011029346
N  N35  1  0.68120000  0.30200000  0.28640000  1.0 -0.2011029346
N  N36  1  0.69800000  0.31880000  0.78640000  1.0 -0.2011029346
N  N37  1  0.48250000  0.19150000  0.32850000  1.0 -0.1913277257
N  N38  1  0.80850000  0.51750000  0.82850000  1.0 -0.1913277257
N  N39  1  0.39580000  0.31500000  0.41480000  1.0 -0.459901252
N  N40  1  0.68500000  0.60420000  0.91480000  1.0 -0.459901252
N  N41  1  0.29620000  0.14760000  0.44170000  1.0 -0.4509401109
N  N42  1  0.85240000  0.70380000  0.94170000  1.0 -0.4509401109
N  N43  1  0.29490000  0.25090000  0.47270000  1.0 -0.4509401109
N  N44  1  0.74910000  0.70510000  0.97270000  1.0 -0.4509401109
N  N45  1  0.45090000  0.59870000  0.44550000  1.0 -0.2318547305
N  N46  1  0.40130000  0.54910000  0.94550000  1.0 -0.2318547305
N  N47  1  0.04570000  0.92590000  0.55260000  1.0 -0.2011029346
N  N48  1  0.07410000  0.95430000  0.05260000  1.0 -0.2011029346
