# DDEC6 charges by PACMAN v1.1 (https://github.com/mtap-research/PACMAN-charge/)
data_ZOSPUV_ASR_pacman
_symmetry_space_group_name_H-M   'P 1'
_cell_length_a   19.14500000
_cell_length_b   19.42100000
_cell_length_c   20.42000000
_cell_angle_alpha   79.03200000
_cell_angle_beta   63.98400000
_cell_angle_gamma   71.30600000
_symmetry_Int_Tables_number   1
_chemical_formula_structural   ZnH32(C23O)2
_chemical_formula_sum   'Zn4 H128 C184 O8'
_cell_volume   6452.15455225
_cell_formula_units_Z   4
loop_
 _symmetry_equiv_pos_site_id
 _symmetry_equiv_pos_as_xyz
  1  'x, y, z'
loop_
 _atom_site_type_symbol
 _atom_site_label
 _atom_site_symmetry_multiplicity
 _atom_site_fract_x
 _atom_site_fract_y
 _atom_site_fract_z
 _atom_site_occupancy
 _atom_site_charge
Zn  Zn1  1  0.42461000  0.47967000  0.47384000  1.0 0.560697261
Zn  Zn2  1  0.44880000  0.42560000  0.53220000  1.0 0.5104571019
Zn  Zn3  1  0.57539000  0.52033000  0.52616000  1.0 0.560697261
Zn  Zn4  1  0.55120000  0.57440000  0.46780000  1.0 0.5104571019
H  H1  1  0.27754000  0.38545000  0.41752000  1.0 0.1313686134
H  H2  1  0.20363000  0.31337000  0.41455000  1.0 0.1121798033
H  H3  1  0.25494000  0.18081000  0.57518000  1.0 0.1121798033
H  H4  1  0.32959000  0.26285000  0.57162000  1.0 0.1313686134
H  H5  1  0.10370000  0.26231000  0.45442000  1.0 0.1121798033
H  H6  1  0.23521000  0.09737000  0.53969000  1.0 0.1121798033
H  H7  1  0.02460000  0.29476000  0.40618000  1.0 0.1208515653
H  H8  1  0.84534000  0.26224000  0.37603000  1.0 0.1121798033
H  H9  1  0.22183000  0.79653000  0.61982000  1.0 0.1121798033
H  H10  1  0.26485000  0.99536000  0.56716000  1.0 0.1208515653
H  H11  1  0.57470000  0.34916000  0.35488000  1.0 0.1208515653
H  H12  1  0.65226000  0.27492000  0.26050000  1.0 0.1208515653
H  H13  1  0.84409000  0.33955000  0.23209000  1.0 0.1208515653
H  H14  1  0.75714000  0.41715000  0.32948000  1.0 0.1313686134
H  H15  1  0.73262000  0.24230000  0.14294000  1.0 0.1121798033
H  H16  1  0.91204000  0.21669000  0.20217000  1.0 0.1121798033
H  H17  1  0.69277000  0.22321000  0.07135000  1.0 0.1208515653
H  H18  1  0.71499000  0.08720000  0.93800000  1.0 0.1208515653
H  H19  1  0.76982000  0.98456000  0.89401000  1.0 0.1208515653
H  H20  1  0.97159000  0.82596000  0.81510000  1.0 0.1208515653
H  H21  1  0.43175000  0.21540000  0.07876000  1.0 0.1208515653
H  H22  1  0.53362000  0.33642000  0.91042000  1.0 0.1395610786
H  H23  1  0.50790000  0.76626000  0.56962000  1.0 0.1208515653
H  H24  1  0.36234000  0.76489000  0.52148000  1.0 0.1313686134
H  H25  1  0.45621000  0.75128000  0.48948000  1.0 0.1313686134
H  H26  1  0.40233000  0.82595000  0.47219000  1.0 0.1495992173
H  H27  1  0.51383000  0.80231000  0.72810000  1.0 0.1395610786
H  H28  1  0.56563000  0.82440000  0.64731000  1.0 0.1495992173
H  H29  1  0.55555000  0.74513000  0.66823000  1.0 0.1395610786
H  H30  1  0.72482000  0.75232000  0.84669000  1.0 0.1208515653
H  H31  1  0.78714000  0.89303000  0.67364000  1.0 0.1208515653
H  H32  1  0.79968000  0.53096000  0.40141000  1.0 0.1208515653
H  H33  1  0.76800000  0.44802000  0.50650000  1.0 0.1313686134
H  H34  1  0.83933000  0.38031000  0.50749000  1.0 0.1395610786
H  H35  1  0.77382000  0.37236000  0.48515000  1.0 0.1313686134
H  H36  1  0.96968000  0.46979000  0.20952000  1.0 0.1395610786
H  H37  1  0.06768000  0.31269000  0.24668000  1.0 0.1395610786
H  H38  1  0.04594000  0.35455000  0.18159000  1.0 0.1395610786
H  H39  1  0.00423000  0.29383000  0.22907000  1.0 0.1313686134
H  H40  1  0.79671000  0.60463000  0.30086000  1.0 0.1208515653
H  H41  1  0.87353000  0.59566000  0.22701000  1.0 0.1208515653
H  H42  1  0.87570000  0.61730000  0.29611000  1.0 0.1313686134
H  H43  1  0.89424000  0.95677000  0.73191000  1.0 0.1313686134
H  H44  1  0.81901000  0.00034000  0.71487000  1.0 0.1395610786
H  H45  1  0.88946000  0.94361000  0.66076000  1.0 0.1208515653
H  H46  1  0.22958000  0.99118000  0.70872000  1.0 0.1395610786
H  H47  1  0.23607000  0.94763000  0.77973000  1.0 0.1313686134
H  H48  1  0.19007000  0.92632000  0.74266000  1.0 0.1313686134
H  H49  1  0.37912000  0.88232000  0.74674000  1.0 0.1208515653
H  H50  1  0.67988000  0.74577000  0.76931000  1.0 0.1313686134
H  H51  1  0.75558000  0.73685000  0.69460000  1.0 0.1313686134
H  H52  1  0.67995000  0.80354000  0.70421000  1.0 0.1395610786
H  H53  1  0.73852000  0.25479000  0.91202000  1.0 0.1208515653
H  H54  1  0.68882000  0.33472000  0.90217000  1.0 0.1208515653
H  H55  1  0.71134000  0.27686000  0.84711000  1.0 0.1208515653
H  H56  1  0.40190000  0.36948000  0.94824000  1.0 0.1121798033
H  H57  1  0.35653000  0.30892000  0.98638000  1.0 0.1121798033
H  H58  1  0.35644000  0.36400000  0.03346000  1.0 0.1208515653
H  H59  1  0.51078000  0.11720000  0.11487000  1.0 0.1395610786
H  H60  1  0.53393000  0.16908000  0.14753000  1.0 0.1313686134
H  H61  1  0.60172000  0.11341000  0.09067000  1.0 0.1395610786
H  H62  1  0.80841000  0.81303000  0.94314000  1.0 0.1313686134
H  H63  1  0.83084000  0.73534000  0.91618000  1.0 0.1313686134
H  H64  1  0.74004000  0.77792000  0.95555000  1.0 0.1313686134
H  H65  1  0.72246000  0.61455000  0.58248000  1.0 0.1313686134
H  H66  1  0.79637000  0.68663000  0.58545000  1.0 0.1121798033
H  H67  1  0.74506000  0.81919000  0.42482000  1.0 0.1121798033
H  H68  1  0.67041000  0.73715000  0.42838000  1.0 0.1313686134
H  H69  1  0.89630000  0.73769000  0.54558000  1.0 0.1121798033
H  H70  1  0.76479000  0.90263000  0.46031000  1.0 0.1121798033
H  H71  1  0.97540000  0.70524000  0.59382000  1.0 0.1208515653
H  H72  1  0.15466000  0.73776000  0.62397000  1.0 0.1121798033
H  H73  1  0.77817000  0.20347000  0.38018000  1.0 0.1121798033
H  H74  1  0.73515000  0.00464000  0.43284000  1.0 0.1208515653
H  H75  1  0.42530000  0.65084000  0.64512000  1.0 0.1208515653
H  H76  1  0.34774000  0.72508000  0.73950000  1.0 0.1208515653
H  H77  1  0.15591000  0.66045000  0.76791000  1.0 0.1208515653
H  H78  1  0.24286000  0.58285000  0.67052000  1.0 0.1313686134
H  H79  1  0.26738000  0.75770000  0.85706000  1.0 0.1121798033
H  H80  1  0.08796000  0.78331000  0.79783000  1.0 0.1121798033
H  H81  1  0.30723000  0.77679000  0.92865000  1.0 0.1208515653
H  H82  1  0.28501000  0.91280000  0.06200000  1.0 0.1208515653
H  H83  1  0.23018000  0.01544000  0.10599000  1.0 0.1208515653
H  H84  1  0.02841000  0.17404000  0.18490000  1.0 0.1208515653
H  H85  1  0.56825000  0.78460000  0.92124000  1.0 0.1208515653
H  H86  1  0.46638000  0.66358000  0.08958000  1.0 0.1395610786
H  H87  1  0.49210000  0.23374000  0.43038000  1.0 0.1208515653
H  H88  1  0.63766000  0.23511000  0.47852000  1.0 0.1313686134
H  H89  1  0.54379000  0.24872000  0.51052000  1.0 0.1313686134
H  H90  1  0.59767000  0.17405000  0.52781000  1.0 0.1495992173
H  H91  1  0.48617000  0.19769000  0.27190000  1.0 0.1395610786
H  H92  1  0.43437000  0.17560000  0.35269000  1.0 0.1495992173
H  H93  1  0.44445000  0.25487000  0.33177000  1.0 0.1395610786
H  H94  1  0.27518000  0.24768000  0.15331000  1.0 0.1208515653
H  H95  1  0.21286000  0.10697000  0.32636000  1.0 0.1208515653
H  H96  1  0.20032000  0.46904000  0.59859000  1.0 0.1208515653
H  H97  1  0.23200000  0.55198000  0.49350000  1.0 0.1313686134
H  H98  1  0.16067000  0.61969000  0.49251000  1.0 0.1395610786
H  H99  1  0.22618000  0.62764000  0.51485000  1.0 0.1313686134
H  H100  1  0.03032000  0.53021000  0.79048000  1.0 0.1395610786
H  H101  1  0.93232000  0.68731000  0.75332000  1.0 0.1395610786
H  H102  1  0.95406000  0.64545000  0.81841000  1.0 0.1395610786
H  H103  1  0.99577000  0.70617000  0.77093000  1.0 0.1313686134
H  H104  1  0.20329000  0.39537000  0.69914000  1.0 0.1208515653
H  H105  1  0.12647000  0.40434000  0.77299000  1.0 0.1208515653
H  H106  1  0.12430000  0.38270000  0.70389000  1.0 0.1313686134
H  H107  1  0.10576000  0.04323000  0.26809000  1.0 0.1313686134
H  H108  1  0.18099000  0.99966000  0.28513000  1.0 0.1395610786
H  H109  1  0.11054000  0.05639000  0.33924000  1.0 0.1208515653
H  H110  1  0.77042000  0.00882000  0.29128000  1.0 0.1395610786
H  H111  1  0.76393000  0.05237000  0.22027000  1.0 0.1313686134
H  H112  1  0.80993000  0.07368000  0.25734000  1.0 0.1313686134
H  H113  1  0.62088000  0.11768000  0.25326000  1.0 0.1208515653
H  H114  1  0.32012000  0.25423000  0.23069000  1.0 0.1313686134
H  H115  1  0.24442000  0.26315000  0.30540000  1.0 0.1313686134
H  H116  1  0.32005000  0.19646000  0.29579000  1.0 0.1395610786
H  H117  1  0.26148000  0.74521000  0.08798000  1.0 0.1121798033
H  H118  1  0.31118000  0.66528000  0.09783000  1.0 0.1208515653
H  H119  1  0.28866000  0.72314000  0.15289000  1.0 0.1208515653
H  H120  1  0.59810000  0.63052000  0.05176000  1.0 0.1121798033
H  H121  1  0.64347000  0.69108000  0.01362000  1.0 0.1121798033
H  H122  1  0.64356000  0.63600000  0.96654000  1.0 0.1208515653
H  H123  1  0.48922000  0.88280000  0.88513000  1.0 0.1395610786
H  H124  1  0.46607000  0.83092000  0.85247000  1.0 0.1313686134
H  H125  1  0.39828000  0.88659000  0.90933000  1.0 0.1395610786
H  H126  1  0.19159000  0.18697000  0.05686000  1.0 0.1313686134
H  H127  1  0.16916000  0.26466000  0.08382000  1.0 0.1313686134
H  H128  1  0.25996000  0.22208000  0.04445000  1.0 0.1313686134
C  C1  1  0.35940000  0.37620000  0.49870000  1.0 0.5256357823
C  C2  1  0.31040000  0.33040000  0.49470000  1.0 -0.0099276823
C  C3  1  0.27340000  0.34430000  0.44940000  1.0 -0.1113968457
C  C4  1  0.22870000  0.30090000  0.44680000  1.0 -0.1438965316
C  C5  1  0.22290000  0.24040000  0.49230000  1.0 0.0696707551
C  C6  1  0.25910000  0.22160000  0.54280000  1.0 -0.1438965316
C  C7  1  0.30430000  0.27250000  0.53980000  1.0 -0.1152231808
C  C8  1  0.17810000  0.18840000  0.49520000  1.0 0.0835527253
C  C9  1  0.11670000  0.21360000  0.47030000  1.0 -0.2018979567
C  C10  1  0.07330000  0.16780000  0.46820000  1.0 0.0388994767
C  C11  1  0.09150000  0.09420000  0.49430000  1.0 -0.0218373129
C  C12  1  0.15330000  0.06690000  0.52050000  1.0 0.0475174083
C  C13  1  0.19550000  0.11470000  0.52150000  1.0 -0.2304115895
C  C14  1  0.99270000  0.26510000  0.41110000  1.0 -0.1913296894
C  C15  1  0.93110000  0.29330000  0.38760000  1.0 0.1121798033
C  C16  1  0.88680000  0.24500000  0.39200000  1.0 -0.1913296894
C  C17  1  0.90270000  0.17340000  0.41900000  1.0 0.0388994767
C  C18  1  0.96440000  0.14860000  0.44410000  1.0 -0.0258120012
C  C19  1  0.00990000  0.19340000  0.44220000  1.0 0.0388994767
C  C20  1  0.17180000  0.99240000  0.54950000  1.0 0.0388994767
C  C21  1  0.14550000  0.87130000  0.58000000  1.0 0.0388994767
C  C22  1  0.20830000  0.84490000  0.60310000  1.0 -0.2089854147
C  C23  1  0.25110000  0.89420000  0.60040000  1.0 0.1208515653
C  C24  1  0.23350000  0.96540000  0.57150000  1.0 -0.1913296894
C  C25  1  0.04560000  0.04610000  0.49740000  1.0 -0.0099276823
C  C26  1  0.98400000  0.07290000  0.47220000  1.0 -0.0099276823
C  C27  1  0.06190000  0.97440000  0.52470000  1.0 -0.0099276823
C  C28  1  0.66190000  0.38740000  0.34870000  1.0 -0.0218373129
C  C29  1  0.62940000  0.34630000  0.32990000  1.0 -0.0980653244
C  C30  1  0.67590000  0.30090000  0.27490000  1.0 -0.1438965316
C  C31  1  0.75990000  0.29230000  0.23900000  1.0 0.0835527253
C  C32  1  0.79020000  0.33930000  0.25740000  1.0 -0.1625591184
C  C33  1  0.73750000  0.38690000  0.31560000  1.0 -0.0864669833
C  C34  1  0.81270000  0.23990000  0.18150000  1.0 0.0696707551
C  C35  1  0.78480000  0.21860000  0.13910000  1.0 -0.1822645146
C  C36  1  0.83030000  0.16350000  0.09090000  1.0 0.0388994767
C  C37  1  0.90900000  0.12240000  0.08730000  1.0 -0.0218373129
C  C38  1  0.93850000  0.14550000  0.13070000  1.0 0.0388994767
C  C39  1  0.89120000  0.20240000  0.17510000  1.0 -0.1822645146
C  C40  1  0.72300000  0.18280000  0.04350000  1.0 -0.216462903
C  C41  1  0.69500000  0.16290000  0.00140000  1.0 0.1121798033
C  C42  1  0.73660000  0.10140000  0.96440000  1.0 -0.2018979567
C  C43  1  0.81210000  0.05770000  0.96460000  1.0 0.0388994767
C  C44  1  0.84660000  0.07830000  0.00290000  1.0 -0.0258120012
C  C45  1  0.79860000  0.14170000  0.04480000  1.0 0.0475174083
C  C46  1  0.85450000  0.99230000  0.92530000  1.0 0.0388994767
C  C47  1  0.82260000  0.96250000  0.88900000  1.0 -0.2018979567
C  C48  1  0.86570000  0.90290000  0.84700000  1.0 0.0998333697
C  C49  1  0.94340000  0.86740000  0.84170000  1.0 -0.2018979567
C  C50  1  0.98080000  0.89170000  0.87500000  1.0 0.0388994767
C  C51  1  0.93390000  0.95390000  0.91850000  1.0 -0.0218373129
C  C52  1  0.95660000  0.06220000  0.03990000  1.0 -0.0099276823
C  C53  1  0.92390000  0.03980000  0.00070000  1.0 -0.0010404414
C  C54  1  0.96710000  0.97830000  0.96020000  1.0 -0.0099276823
C  C55  1  0.61510000  0.20810000  0.99880000  1.0 -0.0980653244
C  C56  1  0.54470000  0.19580000  0.04940000  1.0 0.0893686299
C  C57  1  0.47750000  0.22930000  0.04520000  1.0 -0.2517294502
C  C58  1  0.46900000  0.28210000  0.99650000  1.0 0.1313686134
C  C59  1  0.53700000  0.29960000  0.94630000  1.0 -0.2559462602
C  C60  1  0.61370000  0.26200000  0.94790000  1.0 0.1208515653
C  C61  1  0.32240000  0.86430000  0.62420000  1.0 -0.0864669833
C  C62  1  0.39650000  0.81880000  0.57980000  1.0 0.1495992173
C  C63  1  0.45990000  0.79700000  0.59920000  1.0 -0.2517294502
C  C64  1  0.31570000  0.88980000  0.68610000  1.0 0.1395610786
C  C65  1  0.40520000  0.78700000  0.50860000  1.0 -0.441954553
C  C66  1  0.52930000  0.79560000  0.67770000  1.0 -0.4593776952
C  C67  1  0.82560000  0.87310000  0.81320000  1.0 -0.0692813995
C  C68  1  0.79210000  0.81590000  0.85130000  1.0 0.1208515653
C  C69  1  0.75050000  0.78870000  0.82190000  1.0 -0.2517294502
C  C70  1  0.75070000  0.81880000  0.75630000  1.0 0.1495992173
C  C71  1  0.78660000  0.87400000  0.71920000  1.0 -0.216462903
C  C72  1  0.81920000  0.89800000  0.75020000  1.0 0.0998333697
C  C73  1  0.83990000  0.49490000  0.37120000  1.0 -0.2662680935
C  C74  1  0.91590000  0.37070000  0.35510000  1.0 -0.0827979113
C  C75  1  0.88110000  0.51400000  0.29920000  1.0 0.1495992173
C  C76  1  0.80430000  0.40420000  0.48300000  1.0 -0.441954553
C  C77  1  0.95800000  0.38900000  0.28110000  1.0 0.1208515653
C  C78  1  0.93990000  0.45800000  0.25820000  1.0 -0.2304115895
C  C79  1  0.02520000  0.33230000  0.22990000  1.0 -0.4510407831
C  C80  1  0.85460000  0.58900000  0.27920000  1.0 -0.4119181718
C  C81  1  0.85880000  0.95440000  0.71120000  1.0 -0.427610163
C  C82  1  0.85600000  0.42350000  0.40120000  1.0 0.1395610786
C  C83  1  0.12660000  0.94510000  0.55110000  1.0 -0.0218373129
C  C84  1  0.23500000  0.94400000  0.73400000  1.0 -0.4510407831
C  C85  1  0.45480000  0.81910000  0.66130000  1.0 0.1779482548
C  C86  1  0.38290000  0.86630000  0.70490000  1.0 -0.2662680935
C  C87  1  0.71250000  0.77130000  0.72820000  1.0 -0.4593776952
C  C88  1  0.69650000  0.28440000  0.89720000  1.0 -0.4119181718
C  C89  1  0.38770000  0.33670000  0.99050000  1.0 -0.4167395498
C  C90  1  0.54800000  0.14520000  0.10470000  1.0 -0.427610163
C  C91  1  0.60830000  0.43280000  0.41280000  1.0 0.5398753618
C  C92  1  0.79290000  0.78260000  0.92290000  1.0 -0.441954553
C  C93  1  0.64060000  0.62380000  0.50130000  1.0 0.5256357823
C  C94  1  0.68960000  0.66960000  0.50530000  1.0 -0.0099276823
C  C95  1  0.72660000  0.65570000  0.55060000  1.0 -0.1113968457
C  C96  1  0.77130000  0.69910000  0.55320000  1.0 -0.1438965316
C  C97  1  0.77710000  0.75960000  0.50770000  1.0 0.0696707551
C  C98  1  0.74090000  0.77840000  0.45720000  1.0 -0.1438965316
C  C99  1  0.69570000  0.72750000  0.46020000  1.0 -0.1152231808
C  C100  1  0.82190000  0.81160000  0.50480000  1.0 0.0835527253
C  C101  1  0.88330000  0.78640000  0.52970000  1.0 -0.2018979567
C  C102  1  0.92670000  0.83220000  0.53180000  1.0 0.0344968323
C  C103  1  0.90850000  0.90580000  0.50570000  1.0 -0.0218373129
C  C104  1  0.84670000  0.93310000  0.47950000  1.0 0.0475174083
C  C105  1  0.80450000  0.88530000  0.47850000  1.0 -0.2304115895
C  C106  1  0.00730000  0.73490000  0.58890000  1.0 -0.1913296894
C  C107  1  0.06890000  0.70670000  0.61240000  1.0 0.1121798033
C  C108  1  0.11320000  0.75500000  0.60800000  1.0 -0.1913296894
C  C109  1  0.09730000  0.82660000  0.58100000  1.0 0.0388994767
C  C110  1  0.03560000  0.85140000  0.55590000  1.0 -0.0258120012
C  C111  1  0.99010000  0.80660000  0.55780000  1.0 0.0388994767
C  C112  1  0.82820000  0.00760000  0.45050000  1.0 0.0388994767
C  C113  1  0.85450000  0.12870000  0.42000000  1.0 0.0388994767
C  C114  1  0.79170000  0.15510000  0.39690000  1.0 -0.2089854147
C  C115  1  0.74890000  0.10580000  0.39960000  1.0 0.1208515653
C  C116  1  0.76650000  0.03460000  0.42850000  1.0 -0.1913296894
C  C117  1  0.95440000  0.95390000  0.50260000  1.0 -0.0099276823
C  C118  1  0.01600000  0.92710000  0.52780000  1.0 -0.0099276823
C  C119  1  0.93810000  0.02560000  0.47530000  1.0 -0.0099276823
C  C120  1  0.33810000  0.61260000  0.65130000  1.0 -0.0218373129
C  C121  1  0.37060000  0.65370000  0.67010000  1.0 -0.0980653244
C  C122  1  0.32410000  0.69910000  0.72510000  1.0 -0.1438965316
C  C123  1  0.24010000  0.70770000  0.76100000  1.0 0.0835527253
C  C124  1  0.20980000  0.66070000  0.74260000  1.0 -0.1625591184
C  C125  1  0.26250000  0.61310000  0.68440000  1.0 -0.0864669833
C  C126  1  0.18730000  0.76010000  0.81850000  1.0 0.0696707551
C  C127  1  0.21520000  0.78140000  0.86090000  1.0 -0.1822645146
C  C128  1  0.16970000  0.83650000  0.90910000  1.0 0.0388994767
C  C129  1  0.09100000  0.87760000  0.91270000  1.0 -0.0218373129
C  C130  1  0.06150000  0.85450000  0.86930000  1.0 0.0388994767
C  C131  1  0.10880000  0.79760000  0.82490000  1.0 -0.1822645146
C  C132  1  0.27700000  0.81720000  0.95650000  1.0 -0.216462903
C  C133  1  0.30500000  0.83710000  0.99860000  1.0 0.0998333697
C  C134  1  0.26340000  0.89860000  0.03560000  1.0 -0.2018979567
C  C135  1  0.18790000  0.94230000  0.03540000  1.0 0.0388994767
C  C136  1  0.15340000  0.92170000  0.99710000  1.0 -0.0258120012
C  C137  1  0.20140000  0.85830000  0.95520000  1.0 0.0475174083
C  C138  1  0.14550000  0.00770000  0.07470000  1.0 0.0388994767
C  C139  1  0.17740000  0.03750000  0.11100000  1.0 -0.2018979567
C  C140  1  0.13430000  0.09710000  0.15300000  1.0 0.0998333697
C  C141  1  0.05660000  0.13260000  0.15830000  1.0 -0.2018979567
C  C142  1  0.01920000  0.10830000  0.12500000  1.0 0.0388994767
C  C143  1  0.06610000  0.04610000  0.08150000  1.0 -0.0218373129
C  C144  1  0.04340000  0.93780000  0.96010000  1.0 -0.0099276823
C  C145  1  0.07610000  0.96020000  0.99930000  1.0 -0.0010404414
C  C146  1  0.03290000  0.02170000  0.03980000  1.0 -0.0099276823
C  C147  1  0.38490000  0.79190000  0.00120000  1.0 -0.0980653244
C  C148  1  0.45530000  0.80420000  0.95060000  1.0 0.0893686299
C  C149  1  0.52250000  0.77070000  0.95480000  1.0 -0.2517294502
C  C150  1  0.53100000  0.71790000  0.00350000  1.0 0.1313686134
C  C151  1  0.46300000  0.70040000  0.05370000  1.0 -0.2559462602
C  C152  1  0.38630000  0.73800000  0.05210000  1.0 0.1208515653
C  C153  1  0.67760000  0.13570000  0.37580000  1.0 -0.0864669833
C  C154  1  0.60350000  0.18120000  0.42020000  1.0 0.1495992173
C  C155  1  0.54010000  0.20300000  0.40080000  1.0 -0.2517294502
C  C156  1  0.68430000  0.11020000  0.31390000  1.0 0.1395610786
C  C157  1  0.59480000  0.21300000  0.49140000  1.0 -0.441954553
C  C158  1  0.47070000  0.20440000  0.32230000  1.0 -0.4593776952
C  C159  1  0.17440000  0.12690000  0.18680000  1.0 -0.0692813995
C  C160  1  0.20790000  0.18410000  0.14870000  1.0 0.1208515653
C  C161  1  0.24950000  0.21130000  0.17810000  1.0 -0.2517294502
C  C162  1  0.24930000  0.18120000  0.24370000  1.0 0.1495992173
C  C163  1  0.21340000  0.12600000  0.28080000  1.0 -0.216462903
C  C164  1  0.18080000  0.10200000  0.24980000  1.0 0.0998333697
C  C165  1  0.16010000  0.50510000  0.62880000  1.0 -0.2662680935
C  C166  1  0.08410000  0.62930000  0.64490000  1.0 -0.0827979113
C  C167  1  0.11890000  0.48600000  0.70080000  1.0 0.1495992173
C  C168  1  0.19570000  0.59580000  0.51700000  1.0 -0.441954553
C  C169  1  0.04200000  0.61100000  0.71890000  1.0 0.1208515653
C  C170  1  0.06010000  0.54200000  0.74180000  1.0 -0.2304115895
C  C171  1  0.97480000  0.66770000  0.77010000  1.0 -0.4510407831
C  C172  1  0.14540000  0.41100000  0.72080000  1.0 -0.4119181718
C  C173  1  0.14120000  0.04560000  0.28880000  1.0 -0.427610163
C  C174  1  0.14400000  0.57650000  0.59880000  1.0 0.1395610786
C  C175  1  0.87340000  0.05490000  0.44890000  1.0 -0.0218373129
C  C176  1  0.76500000  0.05600000  0.26600000  1.0 -0.4510407831
C  C177  1  0.54520000  0.18090000  0.33870000  1.0 0.1779482548
C  C178  1  0.61710000  0.13370000  0.29510000  1.0 -0.2662680935
C  C179  1  0.28750000  0.22870000  0.27180000  1.0 -0.4593776952
C  C180  1  0.30350000  0.71560000  0.10280000  1.0 -0.4119181718
C  C181  1  0.61230000  0.66330000  0.00950000  1.0 -0.4119181718
C  C182  1  0.45200000  0.85480000  0.89530000  1.0 -0.427610163
C  C183  1  0.39170000  0.56720000  0.58720000  1.0 0.5398753618
C  C184  1  0.20710000  0.21740000  0.07710000  1.0 -0.4510407831
O  O1  1  0.39080000  0.36190000  0.54230000  1.0 -0.441954553
O  O2  1  0.36280000  0.43150000  0.45320000  1.0 -0.4709919955
O  O3  1  0.63460000  0.47380000  0.43230000  1.0 -0.441954553
O  O4  1  0.53590000  0.43140000  0.44640000  1.0 -0.5120931829
O  O5  1  0.60920000  0.63810000  0.45770000  1.0 -0.441954553
O  O6  1  0.63720000  0.56850000  0.54680000  1.0 -0.4709919955
O  O7  1  0.36540000  0.52620000  0.56770000  1.0 -0.441954553
O  O8  1  0.46410000  0.56860000  0.55360000  1.0 -0.5120931829
