# DDEC6 charges by PACMAN v1.1 (https://github.com/mtap-research/PACMAN-charge/)
data_ZOSQEG_FSR_pacman
_symmetry_space_group_name_H-M   'P 1'
_cell_length_a   19.03900000
_cell_length_b   19.24400000
_cell_length_c   19.57900000
_cell_angle_alpha   74.73000000
_cell_angle_beta   71.11200000
_cell_angle_gamma   61.06500000
_symmetry_Int_Tables_number   1
_chemical_formula_structural   ZnH32C46O3
_chemical_formula_sum   'Zn4 H128 C184 O12'
_cell_volume   5890.39398767
_cell_formula_units_Z   4
loop_
 _symmetry_equiv_pos_site_id
 _symmetry_equiv_pos_as_xyz
  1  'x, y, z'
loop_
 _atom_site_type_symbol
 _atom_site_label
 _atom_site_symmetry_multiplicity
 _atom_site_fract_x
 _atom_site_fract_y
 _atom_site_fract_z
 _atom_site_occupancy
 _atom_site_charge
Zn  Zn1  1  0.57650000  0.02861000  0.51626000  1.0 0.7203599948
Zn  Zn2  1  0.55490000  0.95700000  0.57940000  1.0 0.6528948087
Zn  Zn3  1  0.42350000  0.97139000  0.48374000  1.0 0.7203599948
Zn  Zn4  1  0.44510000  0.04300000  0.42060000  1.0 0.6528948087
H  H1  1  0.67158000  0.92302000  0.74670000  1.0 0.1390252153
H  H2  1  0.74354000  0.92333000  0.82350000  1.0 0.120354399
H  H3  1  0.79008000  0.09835000  0.68099000  1.0 0.120354399
H  H4  1  0.72278000  0.09142000  0.60540000  1.0 0.1273121862
H  H5  1  0.75623000  0.97339000  0.90350000  1.0 0.1125269228
H  H6  1  0.89232000  0.05884000  0.73617000  1.0 0.1125269228
H  H7  1  0.72672000  0.93851000  0.00943000  1.0 0.120354399
H  H8  1  0.77859000  0.87270000  0.20593000  1.0 0.120354399
H  H9  1  0.97304000  0.10681000  0.69899000  1.0 0.120354399
H  H10  1  0.15759000  0.13247000  0.72731000  1.0 0.120354399
H  H11  1  0.62343000  0.74040000  0.12545000  1.0 0.1273121862
H  H12  1  0.48498000  0.92628000  0.24052000  1.0 0.1273121862
H  H13  1  0.76112000  0.79005000  0.01694000  1.0 0.1390252153
H  H14  1  0.75827000  0.71112000  0.06339000  1.0 0.1390252153
H  H15  1  0.80570000  0.74914000  0.08142000  1.0 0.1390252153
H  H16  1  0.45728000  0.80328000  0.17166000  1.0 0.1486573238
H  H17  1  0.42647000  0.84267000  0.24283000  1.0 0.1390252153
H  H18  1  0.49131000  0.75275000  0.24070000  1.0 0.1486573238
H  H19  1  0.59995000  0.02804000  0.17514000  1.0 0.1390252153
H  H20  1  0.62240000  0.97439000  0.24764000  1.0 0.1390252153
H  H21  1  0.53035000  0.01856000  0.24106000  1.0 0.1390252153
H  H22  1  0.20490000  0.09611000  0.46604000  1.0 0.1273121862
H  H23  1  0.03790000  0.31903000  0.50567000  1.0 0.1390252153
H  H24  1  0.15514000  0.99393000  0.62052000  1.0 0.1390252153
H  H25  1  0.22545000  0.00964000  0.62841000  1.0 0.1390252153
H  H26  1  0.22925000  0.99042000  0.55395000  1.0 0.1390252153
H  H27  1  0.12664000  0.22990000  0.36314000  1.0 0.1273121862
H  H28  1  0.20535000  0.22701000  0.37562000  1.0 0.1273121862
H  H29  1  0.12133000  0.30411000  0.38728000  1.0 0.120354399
H  H30  1  0.92613000  0.29749000  0.65351000  1.0 0.1486573238
H  H31  1  0.97701000  0.34701000  0.63440000  1.0 0.1390252153
H  H32  1  0.99096000  0.27581000  0.69789000  1.0 0.1273121862
H  H33  1  0.23023000  0.19560000  0.57409000  1.0 0.1273121862
H  H34  1  0.14646000  0.28867000  0.65225000  1.0 0.1273121862
H  H35  1  0.34349000  0.25126000  0.71705000  1.0 0.120354399
H  H36  1  0.42561000  0.15079000  0.64520000  1.0 0.1273121862
H  H37  1  0.08418000  0.30915000  0.77579000  1.0 0.120354399
H  H38  1  0.25977000  0.37756000  0.74686000  1.0 0.120354399
H  H39  1  0.96158000  0.33306000  0.81684000  1.0 0.120354399
H  H40  1  0.76633000  0.39548000  0.98400000  1.0 0.120354399
H  H41  1  0.71526000  0.43191000  0.08243000  1.0 0.120354399
H  H42  1  0.70157000  0.55283000  0.22981000  1.0 0.120354399
H  H43  1  0.73879000  0.36843000  0.72380000  1.0 0.1273121862
H  H44  1  0.76027000  0.18663000  0.88863000  1.0 0.1273121862
H  H45  1  0.76834000  0.47162000  0.72331000  1.0 0.1273121862
H  H46  1  0.85815000  0.43294000  0.73479000  1.0 0.1390252153
H  H47  1  0.78307000  0.48162000  0.79371000  1.0 0.1390252153
H  H48  1  0.74445000  0.20987000  0.72894000  1.0 0.1390252153
H  H49  1  0.65927000  0.28469000  0.74597000  1.0 0.1390252153
H  H50  1  0.68147000  0.20808000  0.80368000  1.0 0.1390252153
H  H51  1  0.79775000  0.24694000  0.00634000  1.0 0.1390252153
H  H52  1  0.88904000  0.20654000  0.96163000  1.0 0.1390252153
H  H53  1  0.83045000  0.16571000  0.97711000  1.0 0.1390252153
H  H54  1  0.42192000  0.56130000  0.22315000  1.0 0.1273121862
H  H55  1  0.55048000  0.38558000  0.35531000  1.0 0.1390252153
H  H56  1  0.56543000  0.57320000  0.08371000  1.0 0.1390252153
H  H57  1  0.56404000  0.62981000  0.12940000  1.0 0.1390252153
H  H58  1  0.48116000  0.63255000  0.12716000  1.0 0.1390252153
H  H59  1  0.36524000  0.46687000  0.30487000  1.0 0.120354399
H  H60  1  0.36656000  0.49879000  0.37010000  1.0 0.1273121862
H  H61  1  0.41326000  0.40686000  0.36374000  1.0 0.120354399
H  H62  1  0.69535000  0.34012000  0.33980000  1.0 0.1125269228
H  H63  1  0.73074000  0.40117000  0.29408000  1.0 0.120354399
H  H64  1  0.74282000  0.33111000  0.25822000  1.0 0.120354399
H  H65  1  0.32842000  0.07698000  0.25330000  1.0 0.1390252153
H  H66  1  0.25646000  0.07667000  0.17650000  1.0 0.120354399
H  H67  1  0.20992000  0.90165000  0.31901000  1.0 0.120354399
H  H68  1  0.27722000  0.90858000  0.39460000  1.0 0.1273121862
H  H69  1  0.24377000  0.02661000  0.09650000  1.0 0.1125269228
H  H70  1  0.10768000  0.94116000  0.26383000  1.0 0.1125269228
H  H71  1  0.27328000  0.06149000  0.99057000  1.0 0.120354399
H  H72  1  0.22141000  0.12730000  0.79407000  1.0 0.120354399
H  H73  1  0.02696000  0.89319000  0.30101000  1.0 0.120354399
H  H74  1  0.84241000  0.86753000  0.27269000  1.0 0.120354399
H  H75  1  0.37657000  0.25960000  0.87455000  1.0 0.1273121862
H  H76  1  0.51502000  0.07372000  0.75948000  1.0 0.1273121862
H  H77  1  0.23888000  0.20995000  0.98306000  1.0 0.1390252153
H  H78  1  0.24173000  0.28888000  0.93661000  1.0 0.1390252153
H  H79  1  0.19430000  0.25086000  0.91858000  1.0 0.1390252153
H  H80  1  0.54272000  0.19672000  0.82834000  1.0 0.1486573238
H  H81  1  0.57353000  0.15733000  0.75717000  1.0 0.1390252153
H  H82  1  0.50869000  0.24725000  0.75930000  1.0 0.1486573238
H  H83  1  0.40005000  0.97196000  0.82486000  1.0 0.1390252153
H  H84  1  0.37760000  0.02561000  0.75236000  1.0 0.1390252153
H  H85  1  0.46965000  0.98144000  0.75894000  1.0 0.1390252153
H  H86  1  0.79510000  0.90389000  0.53396000  1.0 0.1273121862
H  H87  1  0.96210000  0.68097000  0.49433000  1.0 0.1390252153
H  H88  1  0.84486000  0.00607000  0.37948000  1.0 0.1390252153
H  H89  1  0.77455000  0.99036000  0.37159000  1.0 0.1390252153
H  H90  1  0.77075000  0.00958000  0.44605000  1.0 0.1390252153
H  H91  1  0.87336000  0.77010000  0.63686000  1.0 0.1273121862
H  H92  1  0.79465000  0.77299000  0.62438000  1.0 0.1273121862
H  H93  1  0.87867000  0.69589000  0.61272000  1.0 0.120354399
H  H94  1  0.07387000  0.70251000  0.34649000  1.0 0.1486573238
H  H95  1  0.02299000  0.65299000  0.36560000  1.0 0.1390252153
H  H96  1  0.00904000  0.72419000  0.30211000  1.0 0.1273121862
H  H97  1  0.76977000  0.80440000  0.42591000  1.0 0.1273121862
H  H98  1  0.85354000  0.71133000  0.34775000  1.0 0.1273121862
H  H99  1  0.65651000  0.74874000  0.28295000  1.0 0.120354399
H  H100  1  0.57439000  0.84921000  0.35480000  1.0 0.1273121862
H  H101  1  0.91582000  0.69085000  0.22421000  1.0 0.120354399
H  H102  1  0.74023000  0.62244000  0.25314000  1.0 0.120354399
H  H103  1  0.03842000  0.66694000  0.18316000  1.0 0.120354399
H  H104  1  0.23367000  0.60452000  0.01600000  1.0 0.120354399
H  H105  1  0.28474000  0.56809000  0.91757000  1.0 0.1273121862
H  H106  1  0.29843000  0.44717000  0.77019000  1.0 0.120354399
H  H107  1  0.26121000  0.63157000  0.27620000  1.0 0.1273121862
H  H108  1  0.23973000  0.81337000  0.11137000  1.0 0.1273121862
H  H109  1  0.23166000  0.52838000  0.27669000  1.0 0.1273121862
H  H110  1  0.14185000  0.56706000  0.26521000  1.0 0.1390252153
H  H111  1  0.21693000  0.51838000  0.20629000  1.0 0.1390252153
H  H112  1  0.25555000  0.79013000  0.27106000  1.0 0.1390252153
H  H113  1  0.34073000  0.71531000  0.25403000  1.0 0.1390252153
H  H114  1  0.31853000  0.79192000  0.19632000  1.0 0.1390252153
H  H115  1  0.20225000  0.75306000  0.99366000  1.0 0.1390252153
H  H116  1  0.11096000  0.79346000  0.03837000  1.0 0.1390252153
H  H117  1  0.16955000  0.83429000  0.02289000  1.0 0.1390252153
H  H118  1  0.57808000  0.43870000  0.77685000  1.0 0.1273121862
H  H119  1  0.44952000  0.61442000  0.64469000  1.0 0.1390252153
H  H120  1  0.43457000  0.42680000  0.91629000  1.0 0.1390252153
H  H121  1  0.43596000  0.37019000  0.87060000  1.0 0.1390252153
H  H122  1  0.51884000  0.36745000  0.87284000  1.0 0.1390252153
H  H123  1  0.63476000  0.53313000  0.69513000  1.0 0.120354399
H  H124  1  0.63344000  0.50121000  0.62990000  1.0 0.1273121862
H  H125  1  0.58674000  0.59314000  0.63626000  1.0 0.120354399
H  H126  1  0.30465000  0.65988000  0.66020000  1.0 0.1125269228
H  H127  1  0.26926000  0.59883000  0.70592000  1.0 0.1125269228
H  H128  1  0.25718000  0.66889000  0.74178000  1.0 0.120354399
C  C1  1  0.64370000  0.00390000  0.62070000  1.0 0.5300442416
C  C2  1  0.68930000  0.00740000  0.66920000  1.0 -0.0202733539
C  C3  1  0.69590000  0.95800000  0.73340000  1.0 -0.0978690881
C  C4  1  0.73870000  0.95840000  0.78040000  1.0 -0.1556815144
C  C5  1  0.77400000  0.01300000  0.76070000  1.0 0.0741418738
C  C6  1  0.76700000  0.06230000  0.69510000  1.0 -0.1497856427
C  C7  1  0.72570000  0.05860000  0.64970000  1.0 -0.0978690881
C  C8  1  0.81690000  0.01480000  0.81140000  1.0 0.0793346739
C  C9  1  0.79820000  0.98970000  0.88510000  1.0 -0.200535224
C  C10  1  0.84000000  0.98800000  0.93300000  1.0 0.0477554846
C  C11  1  0.90530000  0.01120000  0.90550000  1.0 -0.0113378925
C  C12  1  0.92220000  0.04190000  0.83040000  1.0 0.0477554846
C  C13  1  0.87930000  0.04120000  0.78550000  1.0 -0.191050055
C  C14  1  0.75820000  0.93330000  0.03980000  1.0 -0.191050055
C  C15  1  0.73990000  0.90210000  0.11270000  1.0 0.1125269228
C  C16  1  0.78890000  0.89440000  0.15740000  1.0 -0.191050055
C  C17  1  0.85240000  0.91840000  0.13140000  1.0 0.0433732291
C  C18  1  0.86980000  0.94990000  0.05730000  1.0 -0.0202733539
C  C19  1  0.82120000  0.95670000  0.01080000  1.0 0.0433732291
C  C20  1  0.00470000  0.10110000  0.72940000  1.0 -0.191050055
C  C21  1  0.98750000  0.06850000  0.80220000  1.0 0.0477554846
C  C22  1  0.03500000  0.06300000  0.84880000  1.0 -0.0202733539
C  C23  1  0.09810000  0.08810000  0.82120000  1.0 0.0477554846
C  C24  1  0.11450000  0.11770000  0.74660000  1.0 -0.200535224
C  C25  1  0.06710000  0.12500000  0.70140000  1.0 0.1125269228
C  C26  1  0.95270000  0.00610000  0.95350000  1.0 -0.0113378925
C  C27  1  0.93550000  0.97500000  0.02880000  1.0 -0.0113378925
C  C28  1  0.01730000  0.03150000  0.92500000  1.0 -0.0031975222
C  C29  1  0.67190000  0.87630000  0.13980000  1.0 -0.0728255727
C  C30  1  0.68110000  0.80910000  0.11610000  1.0 0.1390252153
C  C31  1  0.61680000  0.78570000  0.14030000  1.0 -0.2521244746
C  C32  1  0.54280000  0.83040000  0.18670000  1.0 0.1874968547
C  C33  1  0.53420000  0.89670000  0.20970000  1.0 -0.2590100677
C  C34  1  0.59820000  0.92060000  0.18730000  1.0 0.1486573238
C  C35  1  0.75850000  0.76050000  0.06480000  1.0 -0.4607965841
C  C36  1  0.47300000  0.80490000  0.21290000  1.0 -0.4607965841
C  C37  1  0.58670000  0.99180000  0.21530000  1.0 -0.4396633666
C  C38  1  0.08740000  0.15680000  0.62150000  1.0 -0.0728255727
C  C39  1  0.14590000  0.10550000  0.57250000  1.0 0.1390252153
C  C40  1  0.16510000  0.13210000  0.49830000  1.0 -0.2521244746
C  C41  1  0.12430000  0.21280000  0.47310000  1.0 0.1814235661
C  C42  1  0.06500000  0.26500000  0.52230000  1.0 -0.2521244746
C  C43  1  0.04470000  0.23790000  0.59760000  1.0 0.1390252153
C  C44  1  0.19330000  0.01670000  0.59600000  1.0 -0.4277930221
C  C45  1  0.14650000  0.24670000  0.39210000  1.0 -0.4116012391
C  C46  1  0.97870000  0.29470000  0.65070000  1.0 -0.4675044727
C  C47  1  0.39220000  0.09220000  0.55980000  1.0 0.5578668851
C  C48  1  0.33700000  0.16090000  0.60290000  1.0 -0.0296884722
C  C49  1  0.25240000  0.20490000  0.60480000  1.0 -0.0845606388
C  C50  1  0.20250000  0.26100000  0.65110000  1.0 -0.1497856427
C  C51  1  0.23410000  0.27810000  0.69720000  1.0 0.0793346739
C  C52  1  0.31990000  0.23780000  0.69080000  1.0 -0.138933913
C  C53  1  0.36960000  0.17890000  0.64630000  1.0 -0.0865827214
C  C54  1  0.18080000  0.33340000  0.75300000  1.0 0.0793346739
C  C55  1  0.10420000  0.33730000  0.79000000  1.0 -0.191050055
C  C56  1  0.05580000  0.38160000  0.84750000  1.0 0.0433732291
C  C57  1  0.08810000  0.42310000  0.86960000  1.0 -0.0113378925
C  C58  1  0.16450000  0.42250000  0.83030000  1.0 0.0477554846
C  C59  1  0.20920000  0.37790000  0.77300000  1.0 -0.1846296649
C  C60  1  0.93440000  0.35640000  0.85970000  1.0 -0.200535224
C  C61  1  0.85800000  0.36000000  0.89480000  1.0 0.1125269228
C  C62  1  0.81730000  0.39470000  0.95900000  1.0 -0.191050055
C  C63  1  0.85110000  0.42840000  0.98670000  1.0 0.0433732291
C  C64  1  0.93000000  0.42490000  0.94910000  1.0 -0.0113378925
C  C65  1  0.97310000  0.38640000  0.88560000  1.0 0.0433732291
C  C66  1  0.80960000  0.46280000  0.05570000  1.0 0.0433732291
C  C67  1  0.73690000  0.45740000  0.09830000  1.0 -0.200535224
C  C68  1  0.69630000  0.48980000  0.16440000  1.0 0.1125269228
C  C69  1  0.72890000  0.52950000  0.18700000  1.0 -0.205953845
C  C70  1  0.80160000  0.53420000  0.14590000  1.0 0.0477554846
C  C71  1  0.84380000  0.49880000  0.08140000  1.0 -0.0202733539
C  C72  1  0.04270000  0.46330000  0.93550000  1.0 -0.0113378925
C  C73  1  0.96520000  0.46330000  0.97530000  1.0 -0.0031975222
C  C74  1  0.92270000  0.50030000  0.03900000  1.0 -0.0031975222
C  C75  1  0.81600000  0.32920000  0.86320000  1.0 -0.0845606388
C  C76  1  0.79270000  0.36790000  0.79820000  1.0 0.1390252153
C  C77  1  0.75500000  0.34110000  0.76700000  1.0 -0.2590100677
C  C78  1  0.74180000  0.27470000  0.79970000  1.0 0.1814235661
C  C79  1  0.76770000  0.23230000  0.86570000  1.0 -0.2590100677
C  C80  1  0.80520000  0.26280000  0.89510000  1.0 0.1486573238
C  C81  1  0.80140000  0.44600000  0.75870000  1.0 -0.4396633666
C  C82  1  0.70310000  0.24120000  0.76640000  1.0 -0.4607965841
C  C83  1  0.83330000  0.21600000  0.96690000  1.0 -0.4396633666
C  C84  1  0.61950000  0.48400000  0.21000000  1.0 -0.0845606388
C  C85  1  0.54440000  0.53530000  0.19260000  1.0 0.1273121862
C  C86  1  0.47230000  0.52650000  0.23520000  1.0 -0.2521244746
C  C87  1  0.47490000  0.46910000  0.29260000  1.0 0.1579994846
C  C88  1  0.54940000  0.42050000  0.31220000  1.0 -0.2193499442
C  C89  1  0.62410000  0.42250000  0.26840000  1.0 0.120354399
C  C90  1  0.53820000  0.59840000  0.12730000  1.0 -0.4549687665
C  C91  1  0.39800000  0.45950000  0.33690000  1.0 -0.4277930221
C  C92  1  0.70600000  0.36860000  0.29240000  1.0 -0.4116012391
C  C93  1  0.35630000  0.99610000  0.37930000  1.0 0.5300442416
C  C94  1  0.31070000  0.99260000  0.33080000  1.0 -0.0202733539
C  C95  1  0.30410000  0.04200000  0.26660000  1.0 -0.0978690881
C  C96  1  0.26130000  0.04160000  0.21960000  1.0 -0.1556815144
C  C97  1  0.22600000  0.98700000  0.23930000  1.0 0.0741418738
C  C98  1  0.23300000  0.93770000  0.30490000  1.0 -0.1497856427
C  C99  1  0.27430000  0.94140000  0.35030000  1.0 -0.0978690881
C  C100  1  0.18310000  0.98520000  0.18860000  1.0 0.0793346739
C  C101  1  0.20180000  0.01030000  0.11490000  1.0 -0.200535224
C  C102  1  0.16000000  0.01200000  0.06700000  1.0 0.0477554846
C  C103  1  0.09470000  0.98880000  0.09450000  1.0 -0.0113378925
C  C104  1  0.07780000  0.95810000  0.16960000  1.0 0.0477554846
C  C105  1  0.12070000  0.95880000  0.21450000  1.0 -0.191050055
C  C106  1  0.24180000  0.06670000  0.96020000  1.0 -0.191050055
C  C107  1  0.26010000  0.09790000  0.88730000  1.0 0.1125269228
C  C108  1  0.21110000  0.10560000  0.84260000  1.0 -0.191050055
C  C109  1  0.14760000  0.08160000  0.86860000  1.0 0.0433732291
C  C110  1  0.13020000  0.05010000  0.94270000  1.0 -0.0202733539
C  C111  1  0.17880000  0.04330000  0.98920000  1.0 0.0433732291
C  C112  1  0.99530000  0.89890000  0.27060000  1.0 -0.191050055
C  C113  1  0.01250000  0.93150000  0.19780000  1.0 0.0477554846
C  C114  1  0.96500000  0.93700000  0.15120000  1.0 -0.0202733539
C  C115  1  0.90190000  0.91190000  0.17880000  1.0 0.0477554846
C  C116  1  0.88550000  0.88230000  0.25340000  1.0 -0.200535224
C  C117  1  0.93290000  0.87500000  0.29860000  1.0 0.1125269228
C  C118  1  0.04730000  0.99390000  0.04650000  1.0 -0.0113378925
C  C119  1  0.06450000  0.02500000  0.97120000  1.0 -0.0113378925
C  C120  1  0.98270000  0.96850000  0.07500000  1.0 -0.0113378925
C  C121  1  0.32810000  0.12370000  0.86020000  1.0 -0.0728255727
C  C122  1  0.31890000  0.19090000  0.88390000  1.0 0.1390252153
C  C123  1  0.38320000  0.21430000  0.85970000  1.0 -0.2521244746
C  C124  1  0.45720000  0.16960000  0.81330000  1.0 0.1874968547
C  C125  1  0.46580000  0.10330000  0.79030000  1.0 -0.2590100677
C  C126  1  0.40180000  0.07940000  0.81270000  1.0 0.1486573238
C  C127  1  0.24150000  0.23950000  0.93520000  1.0 -0.4607965841
C  C128  1  0.52700000  0.19510000  0.78710000  1.0 -0.4607965841
C  C129  1  0.41330000  0.00820000  0.78470000  1.0 -0.4396633666
C  C130  1  0.91260000  0.84320000  0.37850000  1.0 -0.0728255727
C  C131  1  0.85410000  0.89450000  0.42750000  1.0 0.1390252153
C  C132  1  0.83490000  0.86790000  0.50170000  1.0 -0.2521244746
C  C133  1  0.87570000  0.78720000  0.52690000  1.0 0.1814235661
C  C134  1  0.93500000  0.73500000  0.47770000  1.0 -0.2521244746
C  C135  1  0.95530000  0.76210000  0.40240000  1.0 0.1390252153
C  C136  1  0.80670000  0.98330000  0.40400000  1.0 -0.4248855274
C  C137  1  0.85350000  0.75330000  0.60790000  1.0 -0.4116012391
C  C138  1  0.02130000  0.70530000  0.34930000  1.0 -0.4675044727
C  C139  1  0.60780000  0.90780000  0.44020000  1.0 0.5578668851
C  C140  1  0.66300000  0.83910000  0.39710000  1.0 -0.0296884722
C  C141  1  0.74760000  0.79510000  0.39520000  1.0 -0.0845606388
C  C142  1  0.79750000  0.73900000  0.34890000  1.0 -0.1497856427
C  C143  1  0.76590000  0.72190000  0.30280000  1.0 0.0793346739
C  C144  1  0.68010000  0.76220000  0.30920000  1.0 -0.138933913
C  C145  1  0.63040000  0.82110000  0.35370000  1.0 -0.0865827214
C  C146  1  0.81920000  0.66666667  0.24700000  1.0 0.0793346739
C  C147  1  0.89580000  0.66270000  0.21000000  1.0 -0.191050055
C  C148  1  0.94420000  0.61840000  0.15250000  1.0 0.0433732291
C  C149  1  0.91190000  0.57690000  0.13040000  1.0 -0.0113378925
C  C150  1  0.83550000  0.57750000  0.16970000  1.0 0.0477554846
C  C151  1  0.79080000  0.62210000  0.22700000  1.0 -0.1846296649
C  C152  1  0.06560000  0.64360000  0.14030000  1.0 -0.200535224
C  C153  1  0.14200000  0.64000000  0.10520000  1.0 0.1125269228
C  C154  1  0.18270000  0.60530000  0.04100000  1.0 -0.191050055
C  C155  1  0.14890000  0.57160000  0.01330000  1.0 0.0477554846
C  C156  1  0.07000000  0.57510000  0.05090000  1.0 -0.0113378925
C  C157  1  0.02690000  0.61360000  0.11440000  1.0 0.0433732291
C  C158  1  0.19040000  0.53720000  0.94430000  1.0 0.0433732291
C  C159  1  0.26310000  0.54260000  0.90170000  1.0 -0.200535224
C  C160  1  0.30370000  0.51020000  0.83560000  1.0 0.1125269228
C  C161  1  0.27110000  0.47050000  0.81300000  1.0 -0.205953845
C  C162  1  0.19840000  0.46580000  0.85410000  1.0 0.0433732291
C  C163  1  0.15620000  0.50120000  0.91860000  1.0 -0.0202733539
C  C164  1  0.95730000  0.53670000  0.06450000  1.0 -0.0113378925
C  C165  1  0.03480000  0.53670000  0.02470000  1.0 -0.0031975222
C  C166  1  0.07730000  0.49970000  0.96100000  1.0 -0.0031975222
C  C167  1  0.18400000  0.67080000  0.13680000  1.0 -0.0845606388
C  C168  1  0.20730000  0.63210000  0.20180000  1.0 0.1390252153
C  C169  1  0.24500000  0.65890000  0.23300000  1.0 -0.2590100677
C  C170  1  0.25820000  0.72530000  0.20030000  1.0 0.1814235661
C  C171  1  0.23230000  0.76770000  0.13430000  1.0 -0.2590100677
C  C172  1  0.19480000  0.73720000  0.10490000  1.0 0.1486573238
C  C173  1  0.19860000  0.55400000  0.24130000  1.0 -0.4396633666
C  C174  1  0.29690000  0.75880000  0.23360000  1.0 -0.4607965841
C  C175  1  0.16670000  0.78400000  0.03310000  1.0 -0.4396633666
C  C176  1  0.38050000  0.51600000  0.79000000  1.0 -0.0845606388
C  C177  1  0.45560000  0.46470000  0.80740000  1.0 0.1273121862
C  C178  1  0.52770000  0.47350000  0.76480000  1.0 -0.2521244746
C  C179  1  0.52510000  0.53090000  0.70740000  1.0 0.1579994846
C  C180  1  0.45060000  0.57950000  0.68780000  1.0 -0.2193499442
C  C181  1  0.37590000  0.57750000  0.73160000  1.0 0.1273121862
C  C182  1  0.46180000  0.40160000  0.87270000  1.0 -0.4607965841
C  C183  1  0.60200000  0.54050000  0.66310000  1.0 -0.4248855274
C  C184  1  0.29400000  0.63140000  0.70760000  1.0 -0.4116012391
O  O1  1  0.55660000  0.11610000  0.43630000  1.0 -0.5210549098
O  O2  1  0.63660000  0.05450000  0.56140000  1.0 -0.4607965841
O  O3  1  0.61380000  0.95400000  0.63960000  1.0 -0.4775944512
O  O4  1  0.46360000  0.05160000  0.56580000  1.0 -0.4775944512
O  O5  1  0.35980000  0.07350000  0.52450000  1.0 -0.4396633666
O  O6  1  0.52200000  0.85800000  0.63480000  1.0 -0.4248855274
O  O7  1  0.44340000  0.88390000  0.56370000  1.0 -0.5210549098
O  O8  1  0.36340000  0.94550000  0.43860000  1.0 -0.4607965841
O  O9  1  0.38620000  0.04600000  0.36040000  1.0 -0.4775944512
O  O10  1  0.53640000  0.94840000  0.43420000  1.0 -0.4775944512
O  O11  1  0.64020000  0.92650000  0.47550000  1.0 -0.4396633666
O  O12  1  0.47800000  0.14200000  0.36520000  1.0 -0.4277930221
