# DDEC6 charges by PACMAN v1.1 (https://github.com/mtap-research/PACMAN-charge/)
data_ZOTKAW_ASR_pacman
_symmetry_space_group_name_H-M   'P 1'
_cell_length_a   10.01300000
_cell_length_b   13.13800000
_cell_length_c   33.94700000
_cell_angle_alpha   90.00000000
_cell_angle_beta   90.00000000
_cell_angle_gamma   90.00000000
_symmetry_Int_Tables_number   1
_chemical_formula_structural   ErH30C44(N5O4)2
_chemical_formula_sum   'Er4 H120 C176 N40 O32'
_cell_volume   4465.75480392
_cell_formula_units_Z   4
loop_
 _symmetry_equiv_pos_site_id
 _symmetry_equiv_pos_as_xyz
  1  'x, y, z'
loop_
 _atom_site_type_symbol
 _atom_site_label
 _atom_site_symmetry_multiplicity
 _atom_site_fract_x
 _atom_site_fract_y
 _atom_site_fract_z
 _atom_site_occupancy
 _atom_site_charge
Er  Er1  1  0.03191000  0.25000000  0.25000000  1.0 2.1462872743
Er  Er2  1  0.46809000  0.75000000  0.75000000  1.0 2.1462872743
Er  Er3  1  0.96809000  0.75000000  0.75000000  1.0 2.1462872743
Er  Er4  1  0.53191000  0.25000000  0.25000000  1.0 2.1462872743
H  H1  1  0.05360000  0.16520000  0.35220000  1.0 0.1300459567
H  H2  1  0.05360000  0.33480000  0.14780000  1.0 0.1300459567
H  H3  1  0.44640000  0.66520000  0.64780000  1.0 0.1300459567
H  H4  1  0.44640000  0.83480000  0.85220000  1.0 0.1300459567
H  H5  1  0.94640000  0.83480000  0.64780000  1.0 0.1300459567
H  H6  1  0.94640000  0.66520000  0.85220000  1.0 0.1300459567
H  H7  1  0.55360000  0.33480000  0.35220000  1.0 0.1300459567
H  H8  1  0.55360000  0.16520000  0.14780000  1.0 0.1300459567
H  H9  1  0.45140000  0.17170000  0.37500000  1.0 0.1230059024
H  H10  1  0.45140000  0.32830000  0.12500000  1.0 0.1230059024
H  H11  1  0.04860000  0.67170000  0.62500000  1.0 0.1230059024
H  H12  1  0.04860000  0.82830000  0.87500000  1.0 0.1230059024
H  H13  1  0.54860000  0.82830000  0.62500000  1.0 0.1230059024
H  H14  1  0.54860000  0.67170000  0.87500000  1.0 0.1230059024
H  H15  1  0.95140000  0.32830000  0.37500000  1.0 0.1230059024
H  H16  1  0.95140000  0.17170000  0.12500000  1.0 0.1230059024
H  H17  1  0.01040000  0.14970000  0.41960000  1.0 0.1230059024
H  H18  1  0.01040000  0.35030000  0.08040000  1.0 0.1230059024
H  H19  1  0.48960000  0.64970000  0.58040000  1.0 0.1230059024
H  H20  1  0.48960000  0.85030000  0.91960000  1.0 0.1230059024
H  H21  1  0.98960000  0.85030000  0.58040000  1.0 0.1230059024
H  H22  1  0.98960000  0.64970000  0.91960000  1.0 0.1230059024
H  H23  1  0.51040000  0.35030000  0.41960000  1.0 0.1230059024
H  H24  1  0.51040000  0.14970000  0.08040000  1.0 0.1230059024
H  H25  1  0.40710000  0.15520000  0.44170000  1.0 0.1300459567
H  H26  1  0.40710000  0.34480000  0.05830000  1.0 0.1300459567
H  H27  1  0.09290000  0.65520000  0.55830000  1.0 0.1300459567
H  H28  1  0.09290000  0.84480000  0.94170000  1.0 0.1300459567
H  H29  1  0.59290000  0.84480000  0.55830000  1.0 0.1300459567
H  H30  1  0.59290000  0.65520000  0.94170000  1.0 0.1300459567
H  H31  1  0.90710000  0.34480000  0.44170000  1.0 0.1300459567
H  H32  1  0.90710000  0.15520000  0.05830000  1.0 0.1300459567
H  H33  1  0.25560000  0.12850000  0.49430000  1.0 0.2477462633
H  H34  1  0.25560000  0.37150000  0.00570000  1.0 0.2477462633
H  H35  1  0.24440000  0.62850000  0.50570000  1.0 0.2477462633
H  H36  1  0.24440000  0.87150000  0.99430000  1.0 0.2477462633
H  H37  1  0.74440000  0.87150000  0.50570000  1.0 0.2477462633
H  H38  1  0.74440000  0.62850000  0.99430000  1.0 0.2477462633
H  H39  1  0.75560000  0.37150000  0.49430000  1.0 0.2477462633
H  H40  1  0.75560000  0.12850000  0.00570000  1.0 0.2477462633
H  H41  1  0.00710000  0.10330000  0.59210000  1.0 0.2877062677
H  H42  1  0.00710000  0.39670000  0.90790000  1.0 0.2877062677
H  H43  1  0.49290000  0.60330000  0.40790000  1.0 0.2877062677
H  H44  1  0.49290000  0.89670000  0.09210000  1.0 0.2877062677
H  H45  1  0.99290000  0.89670000  0.40790000  1.0 0.2877062677
H  H46  1  0.99290000  0.60330000  0.09210000  1.0 0.2877062677
H  H47  1  0.50710000  0.39670000  0.59210000  1.0 0.2877062677
H  H48  1  0.50710000  0.10330000  0.90790000  1.0 0.2877062677
H  H49  1  0.70240000  0.13120000  0.46820000  1.0 0.1300459567
H  H50  1  0.70240000  0.36880000  0.03180000  1.0 0.1300459567
H  H51  1  0.79760000  0.63120000  0.53180000  1.0 0.1300459567
H  H52  1  0.79760000  0.86880000  0.96820000  1.0 0.1300459567
H  H53  1  0.29760000  0.86880000  0.53180000  1.0 0.1300459567
H  H54  1  0.29760000  0.63120000  0.96820000  1.0 0.1300459567
H  H55  1  0.20240000  0.36880000  0.46820000  1.0 0.1300459567
H  H56  1  0.20240000  0.13120000  0.03180000  1.0 0.1300459567
H  H57  1  0.52140000  0.10660000  0.51000000  1.0 0.1107712767
H  H58  1  0.52140000  0.39340000  0.99000000  1.0 0.1107712767
H  H59  1  0.97860000  0.60660000  0.49000000  1.0 0.1107712767
H  H60  1  0.97860000  0.89340000  0.01000000  1.0 0.1107712767
H  H61  1  0.47860000  0.89340000  0.49000000  1.0 0.1107712767
H  H62  1  0.47860000  0.60660000  0.01000000  1.0 0.1107712767
H  H63  1  0.02140000  0.39340000  0.51000000  1.0 0.1107712767
H  H64  1  0.02140000  0.10660000  0.99000000  1.0 0.1107712767
H  H65  1  0.76850000  0.08410000  0.60370000  1.0 0.1484849162
H  H66  1  0.76850000  0.41590000  0.89630000  1.0 0.1484849162
H  H67  1  0.73150000  0.58410000  0.39630000  1.0 0.1484849162
H  H68  1  0.73150000  0.91590000  0.10370000  1.0 0.1484849162
H  H69  1  0.23150000  0.91590000  0.39630000  1.0 0.1484849162
H  H70  1  0.23150000  0.58410000  0.10370000  1.0 0.1484849162
H  H71  1  0.26850000  0.41590000  0.60370000  1.0 0.1484849162
H  H72  1  0.26850000  0.08410000  0.89630000  1.0 0.1484849162
H  H73  1  0.17810000  0.94720000  0.58950000  1.0 0.1230059024
H  H74  1  0.17810000  0.55280000  0.91050000  1.0 0.1230059024
H  H75  1  0.32190000  0.44720000  0.41050000  1.0 0.1230059024
H  H76  1  0.32190000  0.05280000  0.08950000  1.0 0.1230059024
H  H77  1  0.82190000  0.05280000  0.41050000  1.0 0.1230059024
H  H78  1  0.82190000  0.44720000  0.08950000  1.0 0.1230059024
H  H79  1  0.67810000  0.55280000  0.58950000  1.0 0.1230059024
H  H80  1  0.67810000  0.94720000  0.91050000  1.0 0.1230059024
H  H81  1  0.36110000  0.21900000  0.60830000  1.0 0.1107712767
H  H82  1  0.36110000  0.28100000  0.89170000  1.0 0.1107712767
H  H83  1  0.13890000  0.71900000  0.39170000  1.0 0.1107712767
H  H84  1  0.13890000  0.78100000  0.10830000  1.0 0.1107712767
H  H85  1  0.63890000  0.78100000  0.39170000  1.0 0.1107712767
H  H86  1  0.63890000  0.71900000  0.10830000  1.0 0.1107712767
H  H87  1  0.86110000  0.28100000  0.60830000  1.0 0.1107712767
H  H88  1  0.86110000  0.21900000  0.89170000  1.0 0.1107712767
H  H89  1  0.55280000  0.08660000  0.57730000  1.0 0.1107712767
H  H90  1  0.55280000  0.41340000  0.92270000  1.0 0.1107712767
H  H91  1  0.94720000  0.58660000  0.42270000  1.0 0.1107712767
H  H92  1  0.94720000  0.91340000  0.07730000  1.0 0.1107712767
H  H93  1  0.44720000  0.91340000  0.42270000  1.0 0.1107712767
H  H94  1  0.44720000  0.58660000  0.07730000  1.0 0.1107712767
H  H95  1  0.05280000  0.41340000  0.57730000  1.0 0.1107712767
H  H96  1  0.05280000  0.08660000  0.92270000  1.0 0.1107712767
H  H97  1  0.26010000  0.88830000  0.64930000  1.0 0.1300459567
H  H98  1  0.26010000  0.61170000  0.85070000  1.0 0.1300459567
H  H99  1  0.23990000  0.38830000  0.35070000  1.0 0.1300459567
H  H100  1  0.23990000  0.11170000  0.14930000  1.0 0.1300459567
H  H101  1  0.73990000  0.11170000  0.35070000  1.0 0.1300459567
H  H102  1  0.73990000  0.38830000  0.14930000  1.0 0.1300459567
H  H103  1  0.76010000  0.61170000  0.64930000  1.0 0.1300459567
H  H104  1  0.76010000  0.88830000  0.85070000  1.0 0.1300459567
H  H105  1  0.44580000  0.15680000  0.66730000  1.0 0.1230059024
H  H106  1  0.44580000  0.34320000  0.83270000  1.0 0.1230059024
H  H107  1  0.05420000  0.65680000  0.33270000  1.0 0.1230059024
H  H108  1  0.05420000  0.84320000  0.16730000  1.0 0.1230059024
H  H109  1  0.55420000  0.84320000  0.33270000  1.0 0.1230059024
H  H110  1  0.55420000  0.65680000  0.16730000  1.0 0.1230059024
H  H111  1  0.94580000  0.34320000  0.66730000  1.0 0.1230059024
H  H112  1  0.94580000  0.15680000  0.83270000  1.0 0.1230059024
H  H113  1  0.26950000  0.18110000  0.54060000  1.0 0.2073784291
H  H114  1  0.26950000  0.31890000  0.95940000  1.0 0.2073784291
H  H115  1  0.23050000  0.68110000  0.45940000  1.0 0.2073784291
H  H116  1  0.23050000  0.81890000  0.04060000  1.0 0.2073784291
H  H117  1  0.73050000  0.81890000  0.45940000  1.0 0.2073784291
H  H118  1  0.73050000  0.68110000  0.04060000  1.0 0.2073784291
H  H119  1  0.76950000  0.31890000  0.54060000  1.0 0.2073784291
H  H120  1  0.76950000  0.18110000  0.95940000  1.0 0.2073784291
C  C1  1  0.28490000  0.18970000  0.31405000  1.0 0.6704437702
C  C2  1  0.28490000  0.31030000  0.18595000  1.0 0.6704437702
C  C3  1  0.21510000  0.68970000  0.68595000  1.0 0.6704437702
C  C4  1  0.21510000  0.81030000  0.81405000  1.0 0.6704437702
C  C5  1  0.71510000  0.81030000  0.68595000  1.0 0.6704437702
C  C6  1  0.71510000  0.68970000  0.81405000  1.0 0.6704437702
C  C7  1  0.78490000  0.31030000  0.31405000  1.0 0.6704437702
C  C8  1  0.78490000  0.18970000  0.18595000  1.0 0.6704437702
C  C9  1  0.25580000  0.17130000  0.35669000  1.0 -0.0326367564
C  C10  1  0.25580000  0.32870000  0.14331000  1.0 -0.0326367564
C  C11  1  0.24420000  0.67130000  0.64331000  1.0 -0.0326367564
C  C12  1  0.24420000  0.82870000  0.85669000  1.0 -0.0326367564
C  C13  1  0.74420000  0.82870000  0.64331000  1.0 -0.0326367564
C  C14  1  0.74420000  0.67130000  0.85669000  1.0 -0.0326367564
C  C15  1  0.75580000  0.32870000  0.35669000  1.0 -0.0326367564
C  C16  1  0.75580000  0.17130000  0.14331000  1.0 -0.0326367564
C  C17  1  0.12580000  0.16380000  0.37040000  1.0 -0.0791120113
C  C18  1  0.12580000  0.33620000  0.12960000  1.0 -0.0791120113
C  C19  1  0.37420000  0.66380000  0.62960000  1.0 -0.0791120113
C  C20  1  0.37420000  0.83620000  0.87040000  1.0 -0.0791120113
C  C21  1  0.87420000  0.83620000  0.62960000  1.0 -0.0791120113
C  C22  1  0.87420000  0.66380000  0.87040000  1.0 -0.0791120113
C  C23  1  0.62580000  0.33620000  0.37040000  1.0 -0.0791120113
C  C24  1  0.62580000  0.16380000  0.12960000  1.0 -0.0791120113
C  C25  1  0.36170000  0.16740000  0.38392000  1.0 -0.0734452338
C  C26  1  0.36170000  0.33260000  0.11608000  1.0 -0.0734452338
C  C27  1  0.13830000  0.66740000  0.61608000  1.0 -0.0734452338
C  C28  1  0.13830000  0.83260000  0.88392000  1.0 -0.0734452338
C  C29  1  0.63830000  0.83260000  0.61608000  1.0 -0.0734452338
C  C30  1  0.63830000  0.66740000  0.88392000  1.0 -0.0734452338
C  C31  1  0.86170000  0.33260000  0.38392000  1.0 -0.0734452338
C  C32  1  0.86170000  0.16740000  0.11608000  1.0 -0.0734452338
C  C33  1  0.09990000  0.15400000  0.41055000  1.0 -0.200041775
C  C34  1  0.09990000  0.34600000  0.08945000  1.0 -0.200041775
C  C35  1  0.40010000  0.65400000  0.58945000  1.0 -0.200041775
C  C36  1  0.40010000  0.84600000  0.91055000  1.0 -0.200041775
C  C37  1  0.90010000  0.84600000  0.58945000  1.0 -0.200041775
C  C38  1  0.90010000  0.65400000  0.91055000  1.0 -0.200041775
C  C39  1  0.59990000  0.34600000  0.41055000  1.0 -0.200041775
C  C40  1  0.59990000  0.15400000  0.08945000  1.0 -0.200041775
C  C41  1  0.33520000  0.15750000  0.42346000  1.0 -0.200041775
C  C42  1  0.33520000  0.34250000  0.07654000  1.0 -0.200041775
C  C43  1  0.16480000  0.65750000  0.57654000  1.0 -0.200041775
C  C44  1  0.16480000  0.84250000  0.92346000  1.0 -0.200041775
C  C45  1  0.66480000  0.84250000  0.57654000  1.0 -0.200041775
C  C46  1  0.66480000  0.65750000  0.92346000  1.0 -0.200041775
C  C47  1  0.83520000  0.34250000  0.42346000  1.0 -0.200041775
C  C48  1  0.83520000  0.15750000  0.07654000  1.0 -0.200041775
C  C49  1  0.20410000  0.15070000  0.43718000  1.0 0.2304418019
C  C50  1  0.20410000  0.34930000  0.06282000  1.0 0.2304418019
C  C51  1  0.29590000  0.65070000  0.56282000  1.0 0.2304418019
C  C52  1  0.29590000  0.84930000  0.93718000  1.0 0.2304418019
C  C53  1  0.79590000  0.84930000  0.56282000  1.0 0.2304418019
C  C54  1  0.79590000  0.65070000  0.93718000  1.0 0.2304418019
C  C55  1  0.70410000  0.34930000  0.43718000  1.0 0.2304418019
C  C56  1  0.70410000  0.15070000  0.06282000  1.0 0.2304418019
C  C57  1  0.07250000  0.13150000  0.50006000  1.0 0.179067603
C  C58  1  0.07250000  0.36850000  0.99994000  1.0 0.179067603
C  C59  1  0.42750000  0.63150000  0.49994000  1.0 0.179067603
C  C60  1  0.42750000  0.86850000  0.00006000  1.0 0.179067603
C  C61  1  0.92750000  0.86850000  0.49994000  1.0 0.179067603
C  C62  1  0.92750000  0.63150000  0.00006000  1.0 0.179067603
C  C63  1  0.57250000  0.36850000  0.50006000  1.0 0.179067603
C  C64  1  0.57250000  0.13150000  0.99994000  1.0 0.179067603
C  C65  1  0.10030000  0.11990000  0.54264000  1.0 0.2477462633
C  C66  1  0.10030000  0.38010000  0.95736000  1.0 0.2477462633
C  C67  1  0.39970000  0.61990000  0.45736000  1.0 0.2477462633
C  C68  1  0.39970000  0.88010000  0.04264000  1.0 0.2477462633
C  C69  1  0.89970000  0.88010000  0.45736000  1.0 0.2477462633
C  C70  1  0.89970000  0.61990000  0.04264000  1.0 0.2477462633
C  C71  1  0.60030000  0.38010000  0.54264000  1.0 0.2477462633
C  C72  1  0.60030000  0.11990000  0.95736000  1.0 0.2477462633
C  C73  1  0.84750000  0.12120000  0.51104000  1.0 0.1230059024
C  C74  1  0.84750000  0.37880000  0.98896000  1.0 0.1230059024
C  C75  1  0.65250000  0.62120000  0.48896000  1.0 0.1230059024
C  C76  1  0.65250000  0.87880000  0.01104000  1.0 0.1230059024
C  C77  1  0.15250000  0.87880000  0.48896000  1.0 0.1230059024
C  C78  1  0.15250000  0.62120000  0.01104000  1.0 0.1230059024
C  C79  1  0.34750000  0.37880000  0.51104000  1.0 0.1230059024
C  C80  1  0.34750000  0.12120000  0.98896000  1.0 0.1230059024
C  C81  1  0.71660000  0.12150000  0.49560000  1.0 -0.200041775
C  C82  1  0.71660000  0.37850000  0.00440000  1.0 -0.200041775
C  C83  1  0.78340000  0.62150000  0.50440000  1.0 -0.2057203085
C  C84  1  0.78340000  0.87850000  0.99560000  1.0 -0.200041775
C  C85  1  0.28340000  0.87850000  0.50440000  1.0 -0.2057203085
C  C86  1  0.28340000  0.62150000  0.99560000  1.0 -0.2057203085
C  C87  1  0.21660000  0.37850000  0.49560000  1.0 -0.200041775
C  C88  1  0.21660000  0.12150000  0.00440000  1.0 -0.200041775
C  C89  1  0.86440000  0.10810000  0.55144000  1.0 0.1230059024
C  C90  1  0.86440000  0.39190000  0.94856000  1.0 0.1230059024
C  C91  1  0.63560000  0.60810000  0.44856000  1.0 0.1230059024
C  C92  1  0.63560000  0.89190000  0.05144000  1.0 0.1230059024
C  C93  1  0.13560000  0.89190000  0.44856000  1.0 0.1230059024
C  C94  1  0.13560000  0.60810000  0.05144000  1.0 0.1230059024
C  C95  1  0.36440000  0.39190000  0.55144000  1.0 0.1230059024
C  C96  1  0.36440000  0.10810000  0.94856000  1.0 0.1230059024
C  C97  1  0.26390000  0.08810000  0.59217000  1.0 0.2304418019
C  C98  1  0.26390000  0.41190000  0.90783000  1.0 0.2304418019
C  C99  1  0.23610000  0.58810000  0.40783000  1.0 0.2304418019
C  C100  1  0.23610000  0.91190000  0.09217000  1.0 0.2304418019
C  C101  1  0.73610000  0.91190000  0.40783000  1.0 0.2304418019
C  C102  1  0.73610000  0.58810000  0.09217000  1.0 0.2304418019
C  C103  1  0.76390000  0.41190000  0.59217000  1.0 0.2304418019
C  C104  1  0.76390000  0.08810000  0.90783000  1.0 0.2304418019
C  C105  1  0.60930000  0.10750000  0.52050000  1.0 -0.1193608332
C  C106  1  0.60930000  0.39250000  0.97950000  1.0 -0.1193608332
C  C107  1  0.89070000  0.60750000  0.47950000  1.0 -0.1193608332
C  C108  1  0.89070000  0.89250000  0.02050000  1.0 -0.1193608332
C  C109  1  0.39070000  0.89250000  0.47950000  1.0 -0.1193608332
C  C110  1  0.39070000  0.60750000  0.02050000  1.0 -0.1193608332
C  C111  1  0.10930000  0.39250000  0.52050000  1.0 -0.1193608332
C  C112  1  0.10930000  0.10750000  0.97950000  1.0 -0.1193608332
C  C113  1  0.75550000  0.09410000  0.57630000  1.0 -0.200041775
C  C114  1  0.75550000  0.40590000  0.92370000  1.0 -0.200041775
C  C115  1  0.74450000  0.59410000  0.42370000  1.0 -0.200041775
C  C116  1  0.74450000  0.90590000  0.07630000  1.0 -0.200041775
C  C117  1  0.24450000  0.90590000  0.42370000  1.0 -0.200041775
C  C118  1  0.24450000  0.59410000  0.07630000  1.0 -0.200041775
C  C119  1  0.25550000  0.40590000  0.57630000  1.0 -0.200041775
C  C120  1  0.25550000  0.09410000  0.92370000  1.0 -0.200041775
C  C121  1  0.23290000  0.99010000  0.60520000  1.0 -0.2677048923
C  C122  1  0.23290000  0.50990000  0.89480000  1.0 -0.2677048923
C  C123  1  0.26710000  0.49010000  0.39480000  1.0 -0.2677048923
C  C124  1  0.26710000  0.00990000  0.10520000  1.0 -0.2677048923
C  C125  1  0.76710000  0.00990000  0.39480000  1.0 -0.2677048923
C  C126  1  0.76710000  0.49010000  0.10520000  1.0 -0.2677048923
C  C127  1  0.73290000  0.50990000  0.60520000  1.0 -0.2677048923
C  C128  1  0.73290000  0.99010000  0.89480000  1.0 -0.2677048923
C  C129  1  0.34190000  0.15120000  0.61623000  1.0 -0.2887213037
C  C130  1  0.34190000  0.34880000  0.88377000  1.0 -0.2887213037
C  C131  1  0.15810000  0.65120000  0.38377000  1.0 -0.2887213037
C  C132  1  0.15810000  0.84880000  0.11623000  1.0 -0.2887213037
C  C133  1  0.65810000  0.84880000  0.38377000  1.0 -0.2887213037
C  C134  1  0.65810000  0.65120000  0.11623000  1.0 -0.2887213037
C  C135  1  0.84190000  0.34880000  0.61623000  1.0 -0.2887213037
C  C136  1  0.84190000  0.15120000  0.88377000  1.0 -0.2887213037
C  C137  1  0.62790000  0.09480000  0.56050000  1.0 -0.093527905
C  C138  1  0.62790000  0.40520000  0.93950000  1.0 -0.093527905
C  C139  1  0.87210000  0.59480000  0.43950000  1.0 -0.093527905
C  C140  1  0.87210000  0.90520000  0.06050000  1.0 -0.093527905
C  C141  1  0.37210000  0.90520000  0.43950000  1.0 -0.093527905
C  C142  1  0.37210000  0.59480000  0.06050000  1.0 -0.093527905
C  C143  1  0.12790000  0.40520000  0.56050000  1.0 -0.093527905
C  C144  1  0.12790000  0.09480000  0.93950000  1.0 -0.093527905
C  C145  1  0.28140000  0.95530000  0.64082000  1.0 -0.0607286436
C  C146  1  0.28140000  0.54470000  0.85918000  1.0 -0.0607286436
C  C147  1  0.21860000  0.45530000  0.35918000  1.0 -0.0607286436
C  C148  1  0.21860000  0.04470000  0.14082000  1.0 -0.0607286436
C  C149  1  0.71860000  0.04470000  0.35918000  1.0 -0.0607286436
C  C150  1  0.71860000  0.45530000  0.14082000  1.0 -0.0607286436
C  C151  1  0.78140000  0.54470000  0.64082000  1.0 -0.0607286436
C  C152  1  0.78140000  0.95530000  0.85918000  1.0 -0.0607286436
C  C153  1  0.39060000  0.11440000  0.65148000  1.0 -0.0607286436
C  C154  1  0.39060000  0.38560000  0.84852000  1.0 -0.0607286436
C  C155  1  0.10940000  0.61440000  0.34852000  1.0 -0.0607286436
C  C156  1  0.10940000  0.88560000  0.15148000  1.0 -0.0607286436
C  C157  1  0.60940000  0.88560000  0.34852000  1.0 -0.0607286436
C  C158  1  0.60940000  0.61440000  0.15148000  1.0 -0.0607286436
C  C159  1  0.89060000  0.38560000  0.65148000  1.0 -0.0607286436
C  C160  1  0.89060000  0.11440000  0.84852000  1.0 -0.0607286436
C  C161  1  0.36050000  0.01670000  0.66437000  1.0 -0.0121063151
C  C162  1  0.36050000  0.48330000  0.83563000  1.0 -0.0121063151
C  C163  1  0.13950000  0.51670000  0.33563000  1.0 -0.0121063151
C  C164  1  0.13950000  0.98330000  0.16437000  1.0 -0.0121063151
C  C165  1  0.63950000  0.98330000  0.33563000  1.0 -0.0121063151
C  C166  1  0.63950000  0.51670000  0.16437000  1.0 -0.0121063151
C  C167  1  0.86050000  0.48330000  0.66437000  1.0 -0.0121063151
C  C168  1  0.86050000  0.01670000  0.83563000  1.0 -0.0121063151
C  C169  1  0.41890000  0.97790000  0.70221000  1.0 0.6052826284
C  C170  1  0.41890000  0.52210000  0.79779000  1.0 0.6044352769
C  C171  1  0.08110000  0.47790000  0.29779000  1.0 0.6052826284
C  C172  1  0.08110000  0.02210000  0.20221000  1.0 0.6052826284
C  C173  1  0.58110000  0.02210000  0.29779000  1.0 0.6052826284
C  C174  1  0.58110000  0.47790000  0.20221000  1.0 0.6044352769
C  C175  1  0.91890000  0.52210000  0.70221000  1.0 0.6052826284
C  C176  1  0.91890000  0.97790000  0.79779000  1.0 0.6044352769
N  N1  1  0.18580000  0.13930000  0.47812000  1.0 -0.3740843677
N  N2  1  0.18580000  0.36070000  0.02188000  1.0 -0.3740843677
N  N3  1  0.31420000  0.63930000  0.52188000  1.0 -0.3740843677
N  N4  1  0.31420000  0.86070000  0.97812000  1.0 -0.3740843677
N  N5  1  0.81420000  0.86070000  0.52188000  1.0 -0.3740843677
N  N6  1  0.81420000  0.63930000  0.97812000  1.0 -0.3740843677
N  N7  1  0.68580000  0.36070000  0.47812000  1.0 -0.3740843677
N  N8  1  0.68580000  0.13930000  0.02188000  1.0 -0.3740843677
N  N9  1  0.95350000  0.13290000  0.48493000  1.0 -0.3567502641
N  N10  1  0.95350000  0.36710000  0.01507000  1.0 -0.3567502641
N  N11  1  0.54650000  0.63290000  0.51507000  1.0 -0.3567502641
N  N12  1  0.54650000  0.86710000  0.98493000  1.0 -0.3567502641
N  N13  1  0.04650000  0.86710000  0.51507000  1.0 -0.3567502641
N  N14  1  0.04650000  0.63290000  0.98493000  1.0 -0.3567502641
N  N15  1  0.45350000  0.36710000  0.48493000  1.0 -0.3567502641
N  N16  1  0.45350000  0.13290000  0.01507000  1.0 -0.3567502641
N  N17  1  0.99450000  0.10940000  0.56651000  1.0 -0.3795447082
N  N18  1  0.99450000  0.39060000  0.93349000  1.0 -0.3795447082
N  N19  1  0.50550000  0.60940000  0.43349000  1.0 -0.3795447082
N  N20  1  0.50550000  0.89060000  0.06651000  1.0 -0.3795447082
N  N21  1  0.00550000  0.89060000  0.43349000  1.0 -0.3795447082
N  N22  1  0.00550000  0.60940000  0.06651000  1.0 -0.3795447082
N  N23  1  0.49450000  0.39060000  0.56651000  1.0 -0.3795447082
N  N24  1  0.49450000  0.10940000  0.93349000  1.0 -0.3795447082
N  N25  1  0.23100000  0.10410000  0.55320000  1.0 -0.1013705137
N  N26  1  0.23100000  0.39590000  0.94680000  1.0 -0.1013705137
N  N27  1  0.26900000  0.60410000  0.44680000  1.0 -0.1013705137
N  N28  1  0.26900000  0.89590000  0.05320000  1.0 -0.1013705137
N  N29  1  0.76900000  0.89590000  0.44680000  1.0 -0.1013705137
N  N30  1  0.76900000  0.60410000  0.05320000  1.0 -0.1013705137
N  N31  1  0.73100000  0.39590000  0.55320000  1.0 -0.1013705137
N  N32  1  0.73100000  0.10410000  0.94680000  1.0 -0.1013705137
N  N33  1  0.22000000  0.13940000  0.55570000  1.0 -0.1257989884
N  N34  1  0.22000000  0.36060000  0.94430000  1.0 -0.1193608332
N  N35  1  0.28000000  0.63940000  0.44430000  1.0 -0.1193608332
N  N36  1  0.28000000  0.86060000  0.05570000  1.0 -0.1193608332
N  N37  1  0.78000000  0.86060000  0.44430000  1.0 -0.1193608332
N  N38  1  0.78000000  0.63940000  0.05570000  1.0 -0.1193608332
N  N39  1  0.72000000  0.36060000  0.55570000  1.0 -0.1257989884
N  N40  1  0.72000000  0.13940000  0.94430000  1.0 -0.1193608332
O  O1  1  0.18820000  0.18410000  0.29039000  1.0 -0.6682940343
O  O2  1  0.18820000  0.31590000  0.20961000  1.0 -0.6682940343
O  O3  1  0.31180000  0.68410000  0.70961000  1.0 -0.6682940343
O  O4  1  0.31180000  0.81590000  0.79039000  1.0 -0.6682940343
O  O5  1  0.81180000  0.81590000  0.70961000  1.0 -0.6682940343
O  O6  1  0.81180000  0.68410000  0.79039000  1.0 -0.6682940343
O  O7  1  0.68820000  0.31590000  0.29039000  1.0 -0.6682940343
O  O8  1  0.68820000  0.18410000  0.20961000  1.0 -0.6682940343
O  O9  1  0.40110000  0.20910000  0.30406000  1.0 -0.6520234824
O  O10  1  0.40110000  0.29090000  0.19594000  1.0 -0.6520234824
O  O11  1  0.09890000  0.70910000  0.69594000  1.0 -0.6520234824
O  O12  1  0.09890000  0.79090000  0.80406000  1.0 -0.6520234824
O  O13  1  0.59890000  0.79090000  0.69594000  1.0 -0.6520234824
O  O14  1  0.59890000  0.70910000  0.80406000  1.0 -0.6520234824
O  O15  1  0.90110000  0.29090000  0.30406000  1.0 -0.6520234824
O  O16  1  0.90110000  0.20910000  0.19594000  1.0 -0.6520234824
O  O17  1  0.36920000  0.89650000  0.71638000  1.0 -0.6682940343
O  O18  1  0.36920000  0.60350000  0.78362000  1.0 -0.6682940343
O  O19  1  0.13080000  0.39650000  0.28362000  1.0 -0.6682940343
O  O20  1  0.13080000  0.10350000  0.21638000  1.0 -0.6682940343
O  O21  1  0.63080000  0.10350000  0.28362000  1.0 -0.6682940343
O  O22  1  0.63080000  0.39650000  0.21638000  1.0 -0.6682940343
O  O23  1  0.86920000  0.60350000  0.71638000  1.0 -0.6682940343
O  O24  1  0.86920000  0.89650000  0.78362000  1.0 -0.6682940343
O  O25  1  0.51400000  0.02570000  0.71693000  1.0 -0.5063978315
O  O26  1  0.51400000  0.47430000  0.78307000  1.0 -0.5063978315
O  O27  1  0.98600000  0.52570000  0.28307000  1.0 -0.5063978315
O  O28  1  0.98600000  0.97430000  0.21693000  1.0 -0.5063978315
O  O29  1  0.48600000  0.97430000  0.28307000  1.0 -0.5063978315
O  O30  1  0.48600000  0.52570000  0.21693000  1.0 -0.5063978315
O  O31  1  0.01400000  0.47430000  0.71693000  1.0 -0.5063978315
O  O32  1  0.01400000  0.02570000  0.78307000  1.0 -0.5063978315
