# DDEC6 charges by PACMAN v1.1 (https://github.com/mtap-research/PACMAN-charge/)
data_ZOTKEA_FSR_pacman
_symmetry_space_group_name_H-M   'P 1'
_cell_length_a   10.07800000
_cell_length_b   13.16600000
_cell_length_c   34.11200000
_cell_angle_alpha   90.00000000
_cell_angle_beta   90.00000000
_cell_angle_gamma   90.00000000
_symmetry_Int_Tables_number   1
_chemical_formula_structural   EuH34C44(NO)10
_chemical_formula_sum   'Eu4 H136 C176 N40 O40'
_cell_volume   4526.21717018
_cell_formula_units_Z   4
loop_
 _symmetry_equiv_pos_site_id
 _symmetry_equiv_pos_as_xyz
  1  'x, y, z'
loop_
 _atom_site_type_symbol
 _atom_site_label
 _atom_site_symmetry_multiplicity
 _atom_site_fract_x
 _atom_site_fract_y
 _atom_site_fract_z
 _atom_site_occupancy
 _atom_site_charge
Eu  Eu1  1  0.03590000  0.25000000  0.75000000  1.0 2.167035505
Eu  Eu2  1  0.46410000  0.75000000  0.25000000  1.0 2.167035505
Eu  Eu3  1  0.96410000  0.75000000  0.25000000  1.0 2.167035505
Eu  Eu4  1  0.53590000  0.25000000  0.75000000  1.0 2.167035505
H  H1  1  0.95570000  0.04950000  0.76810000  1.0 0.333695378
H  H2  1  0.95570000  0.45050000  0.73190000  1.0 0.333695378
H  H3  1  0.54430000  0.54950000  0.23190000  1.0 0.333695378
H  H4  1  0.54430000  0.95050000  0.26810000  1.0 0.333695378
H  H5  1  0.04430000  0.95050000  0.23190000  1.0 0.333695378
H  H6  1  0.04430000  0.54950000  0.26810000  1.0 0.333695378
H  H7  1  0.45570000  0.45050000  0.76810000  1.0 0.333695378
H  H8  1  0.45570000  0.04950000  0.73190000  1.0 0.333695378
H  H9  1  0.25890000  0.13350000  0.99300000  1.0 0.2540946452
H  H10  1  0.25890000  0.36650000  0.50700000  1.0 0.2540946452
H  H11  1  0.24110000  0.63350000  0.00700000  1.0 0.2540946452
H  H12  1  0.24110000  0.86650000  0.49300000  1.0 0.2540946452
H  H13  1  0.74110000  0.86650000  0.00700000  1.0 0.2540946452
H  H14  1  0.74110000  0.63350000  0.49300000  1.0 0.2540946452
H  H15  1  0.75890000  0.36650000  0.99300000  1.0 0.2540946452
H  H16  1  0.75890000  0.13350000  0.50700000  1.0 0.2540946452
H  H17  1  0.00270000  0.10370000  0.09210000  1.0 0.2892912774
H  H18  1  0.00270000  0.39630000  0.40790000  1.0 0.2892912774
H  H19  1  0.49730000  0.60370000  0.90790000  1.0 0.2892912774
H  H20  1  0.49730000  0.89630000  0.59210000  1.0 0.2892912774
H  H21  1  0.99730000  0.89630000  0.90790000  1.0 0.2892912774
H  H22  1  0.99730000  0.60370000  0.59210000  1.0 0.2892912774
H  H23  1  0.50270000  0.39630000  0.09210000  1.0 0.2892912774
H  H24  1  0.50270000  0.10370000  0.40790000  1.0 0.2892912774
H  H25  1  0.27300000  0.17320000  0.04280000  1.0 0.2192838563
H  H26  1  0.27300000  0.32680000  0.45720000  1.0 0.2192838563
H  H27  1  0.22700000  0.67320000  0.95720000  1.0 0.2192838563
H  H28  1  0.22700000  0.82680000  0.54280000  1.0 0.2192838563
H  H29  1  0.72700000  0.82680000  0.95720000  1.0 0.2192838563
H  H30  1  0.72700000  0.67320000  0.54280000  1.0 0.2192838563
H  H31  1  0.77300000  0.32680000  0.04280000  1.0 0.2192838563
H  H32  1  0.77300000  0.17320000  0.45720000  1.0 0.2192838563
H  H33  1  0.06080000  0.16780000  0.85380000  1.0 0.1288173806
H  H34  1  0.06080000  0.33220000  0.64620000  1.0 0.1288173806
H  H35  1  0.43920000  0.66780000  0.14620000  1.0 0.1288173806
H  H36  1  0.43920000  0.83220000  0.35380000  1.0 0.1288173806
H  H37  1  0.93920000  0.83220000  0.14620000  1.0 0.1288173806
H  H38  1  0.93920000  0.66780000  0.35380000  1.0 0.1288173806
H  H39  1  0.56080000  0.33220000  0.85380000  1.0 0.1288173806
H  H40  1  0.56080000  0.16780000  0.64620000  1.0 0.1288173806
H  H41  1  0.40820000  0.15170000  0.94240000  1.0 0.1288173806
H  H42  1  0.40820000  0.34830000  0.55760000  1.0 0.1288173806
H  H43  1  0.09180000  0.65170000  0.05760000  1.0 0.1288173806
H  H44  1  0.09180000  0.84830000  0.44240000  1.0 0.1288173806
H  H45  1  0.59180000  0.84830000  0.05760000  1.0 0.1288173806
H  H46  1  0.59180000  0.65170000  0.44240000  1.0 0.1288173806
H  H47  1  0.90820000  0.34830000  0.94240000  1.0 0.1288173806
H  H48  1  0.90820000  0.15170000  0.55760000  1.0 0.1288173806
H  H49  1  0.01490000  0.15160000  0.92030000  1.0 0.1209623519
H  H50  1  0.01490000  0.34840000  0.57970000  1.0 0.1209623519
H  H51  1  0.48510000  0.65160000  0.07970000  1.0 0.1209623519
H  H52  1  0.48510000  0.84840000  0.42030000  1.0 0.1209623519
H  H53  1  0.98510000  0.84840000  0.07970000  1.0 0.1209623519
H  H54  1  0.98510000  0.65160000  0.42030000  1.0 0.1209623519
H  H55  1  0.51490000  0.34840000  0.92030000  1.0 0.1209623519
H  H56  1  0.51490000  0.15160000  0.57970000  1.0 0.1209623519
H  H57  1  0.18140000  0.94510000  0.09030000  1.0 0.1209623519
H  H58  1  0.18140000  0.55490000  0.40970000  1.0 0.1209623519
H  H59  1  0.31860000  0.44510000  0.90970000  1.0 0.1209623519
H  H60  1  0.31860000  0.05490000  0.59030000  1.0 0.1209623519
H  H61  1  0.81860000  0.05490000  0.90970000  1.0 0.1209623519
H  H62  1  0.81860000  0.44510000  0.59030000  1.0 0.1209623519
H  H63  1  0.68140000  0.55490000  0.09030000  1.0 0.1209623519
H  H64  1  0.68140000  0.94510000  0.40970000  1.0 0.1209623519
H  H65  1  0.25690000  0.88800000  0.15030000  1.0 0.1288173806
H  H66  1  0.25690000  0.61200000  0.34970000  1.0 0.1288173806
H  H67  1  0.24310000  0.38800000  0.84970000  1.0 0.1288173806
H  H68  1  0.24310000  0.11200000  0.65030000  1.0 0.1288173806
H  H69  1  0.74310000  0.11200000  0.84970000  1.0 0.1288173806
H  H70  1  0.74310000  0.38800000  0.65030000  1.0 0.1288173806
H  H71  1  0.75690000  0.61200000  0.15030000  1.0 0.1288173806
H  H72  1  0.75690000  0.88800000  0.34970000  1.0 0.1288173806
H  H73  1  0.52500000  0.11240000  0.01030000  1.0 0.1037156581
H  H74  1  0.52500000  0.38760000  0.48970000  1.0 0.1037156581
H  H75  1  0.97500000  0.61240000  0.98970000  1.0 0.1037156581
H  H76  1  0.97500000  0.88760000  0.51030000  1.0 0.1037156581
H  H77  1  0.47500000  0.88760000  0.98970000  1.0 0.1037156581
H  H78  1  0.47500000  0.61240000  0.51030000  1.0 0.1037156581
H  H79  1  0.02500000  0.38760000  0.01030000  1.0 0.1037156581
H  H80  1  0.02500000  0.11240000  0.48970000  1.0 0.1037156581
H  H81  1  0.45340000  0.16980000  0.87680000  1.0 0.1209623519
H  H82  1  0.45340000  0.33020000  0.62320000  1.0 0.1209623519
H  H83  1  0.04660000  0.66980000  0.12320000  1.0 0.1209623519
H  H84  1  0.04660000  0.83020000  0.37680000  1.0 0.1209623519
H  H85  1  0.54660000  0.83020000  0.12320000  1.0 0.1209623519
H  H86  1  0.54660000  0.66980000  0.37680000  1.0 0.1209623519
H  H87  1  0.95340000  0.33020000  0.87680000  1.0 0.1209623519
H  H88  1  0.95340000  0.16980000  0.62320000  1.0 0.1209623519
H  H89  1  0.70580000  0.13370000  0.96790000  1.0 0.1288173806
H  H90  1  0.70580000  0.36630000  0.53210000  1.0 0.1288173806
H  H91  1  0.79420000  0.63370000  0.03210000  1.0 0.1288173806
H  H92  1  0.79420000  0.86630000  0.46790000  1.0 0.1288173806
H  H93  1  0.29420000  0.86630000  0.03210000  1.0 0.1288173806
H  H94  1  0.29420000  0.63370000  0.46790000  1.0 0.1288173806
H  H95  1  0.20580000  0.36630000  0.96790000  1.0 0.1288173806
H  H96  1  0.20580000  0.13370000  0.53210000  1.0 0.1288173806
H  H97  1  0.77570000  0.08590000  0.10330000  1.0 0.144263923
H  H98  1  0.77570000  0.41410000  0.39670000  1.0 0.144263923
H  H99  1  0.72430000  0.58590000  0.89670000  1.0 0.144263923
H  H100  1  0.72430000  0.91410000  0.60330000  1.0 0.144263923
H  H101  1  0.22430000  0.91410000  0.89670000  1.0 0.144263923
H  H102  1  0.22430000  0.58590000  0.60330000  1.0 0.144263923
H  H103  1  0.27570000  0.41410000  0.10330000  1.0 0.144263923
H  H104  1  0.27570000  0.08590000  0.39670000  1.0 0.144263923
H  H105  1  0.55770000  0.08970000  0.07790000  1.0 0.1122901289
H  H106  1  0.55770000  0.41030000  0.42210000  1.0 0.1122901289
H  H107  1  0.94230000  0.58970000  0.92210000  1.0 0.1122901289
H  H108  1  0.94230000  0.91030000  0.57790000  1.0 0.1122901289
H  H109  1  0.44230000  0.91030000  0.92210000  1.0 0.1122901289
H  H110  1  0.44230000  0.58970000  0.57790000  1.0 0.1122901289
H  H111  1  0.05770000  0.41030000  0.07790000  1.0 0.1122901289
H  H112  1  0.05770000  0.08970000  0.42210000  1.0 0.1122901289
H  H113  1  0.36370000  0.21860000  0.10760000  1.0 0.1122901289
H  H114  1  0.36370000  0.28140000  0.39240000  1.0 0.1122901289
H  H115  1  0.13630000  0.71860000  0.89240000  1.0 0.1122901289
H  H116  1  0.13630000  0.78140000  0.60760000  1.0 0.1122901289
H  H117  1  0.63630000  0.78140000  0.89240000  1.0 0.1122901289
H  H118  1  0.63630000  0.71860000  0.60760000  1.0 0.1122901289
H  H119  1  0.86370000  0.28140000  0.10760000  1.0 0.1122901289
H  H120  1  0.86370000  0.21860000  0.39240000  1.0 0.1122901289
H  H121  1  0.45420000  0.15580000  0.16550000  1.0 0.1288173806
H  H122  1  0.45420000  0.34420000  0.33450000  1.0 0.1288173806
H  H123  1  0.04580000  0.65580000  0.83450000  1.0 0.1288173806
H  H124  1  0.04580000  0.84420000  0.66550000  1.0 0.1288173806
H  H125  1  0.54580000  0.84420000  0.83450000  1.0 0.1288173806
H  H126  1  0.54580000  0.65580000  0.66550000  1.0 0.1288173806
H  H127  1  0.95420000  0.34420000  0.16550000  1.0 0.1288173806
H  H128  1  0.95420000  0.15580000  0.33450000  1.0 0.1288173806
H  H129  1  0.84300000  0.08200000  0.78300000  1.0 0.35202099
H  H130  1  0.84300000  0.41800000  0.71700000  1.0 0.35202099
H  H131  1  0.65700000  0.58200000  0.21700000  1.0 0.35202099
H  H132  1  0.65700000  0.91800000  0.28300000  1.0 0.35202099
H  H133  1  0.15700000  0.91800000  0.21700000  1.0 0.35202099
H  H134  1  0.15700000  0.58200000  0.28300000  1.0 0.35202099
H  H135  1  0.34300000  0.41800000  0.78300000  1.0 0.35202099
H  H136  1  0.34300000  0.08200000  0.71700000  1.0 0.35202099
C  C1  1  0.28860000  0.19090000  0.81460000  1.0 0.6512912883
C  C2  1  0.28860000  0.30910000  0.68540000  1.0 0.6512912883
C  C3  1  0.21140000  0.69090000  0.18540000  1.0 0.6512912883
C  C4  1  0.21140000  0.80910000  0.31460000  1.0 0.6512912883
C  C5  1  0.71140000  0.80910000  0.18540000  1.0 0.6512912883
C  C6  1  0.71140000  0.69090000  0.31460000  1.0 0.6512912883
C  C7  1  0.78860000  0.30910000  0.81460000  1.0 0.6512912883
C  C8  1  0.78860000  0.19090000  0.68540000  1.0 0.6512912883
C  C9  1  0.26000000  0.17130000  0.85790000  1.0 -0.0170072691
C  C10  1  0.26000000  0.32870000  0.64210000  1.0 -0.0170072691
C  C11  1  0.24000000  0.67130000  0.14210000  1.0 -0.0170072691
C  C12  1  0.24000000  0.82870000  0.35790000  1.0 -0.0170072691
C  C13  1  0.74000000  0.82870000  0.14210000  1.0 -0.0170072691
C  C14  1  0.74000000  0.67130000  0.35790000  1.0 -0.0170072691
C  C15  1  0.76000000  0.32870000  0.85790000  1.0 -0.0170072691
C  C16  1  0.76000000  0.17130000  0.64210000  1.0 -0.0170072691
C  C17  1  0.85010000  0.12080000  0.01090000  1.0 0.1288173806
C  C18  1  0.85010000  0.37920000  0.48910000  1.0 0.1288173806
C  C19  1  0.64990000  0.62080000  0.98910000  1.0 0.1288173806
C  C20  1  0.64990000  0.87920000  0.51090000  1.0 0.1288173806
C  C21  1  0.14990000  0.87920000  0.98910000  1.0 0.1288173806
C  C22  1  0.14990000  0.62080000  0.51090000  1.0 0.1288173806
C  C23  1  0.35010000  0.37920000  0.01090000  1.0 0.1288173806
C  C24  1  0.35010000  0.12080000  0.48910000  1.0 0.1288173806
C  C25  1  0.13230000  0.16510000  0.87190000  1.0 -0.0870969353
C  C26  1  0.13230000  0.33490000  0.62810000  1.0 -0.0870969353
C  C27  1  0.36770000  0.66510000  0.12810000  1.0 -0.0870969353
C  C28  1  0.36770000  0.83490000  0.37190000  1.0 -0.0870969353
C  C29  1  0.86770000  0.83490000  0.12810000  1.0 -0.0870969353
C  C30  1  0.86770000  0.66510000  0.37190000  1.0 -0.0870969353
C  C31  1  0.63230000  0.33490000  0.87190000  1.0 -0.0870969353
C  C32  1  0.63230000  0.16510000  0.62810000  1.0 -0.0870969353
C  C33  1  0.20780000  0.14970000  0.93780000  1.0 0.2192838563
C  C34  1  0.20780000  0.35030000  0.56220000  1.0 0.2192838563
C  C35  1  0.29220000  0.64970000  0.06220000  1.0 0.2192838563
C  C36  1  0.29220000  0.85030000  0.43780000  1.0 0.2192838563
C  C37  1  0.79220000  0.85030000  0.06220000  1.0 0.2192838563
C  C38  1  0.79220000  0.64970000  0.43780000  1.0 0.2192838563
C  C39  1  0.70780000  0.35030000  0.93780000  1.0 0.2192838563
C  C40  1  0.70780000  0.14970000  0.56220000  1.0 0.2192838563
C  C41  1  0.33690000  0.15530000  0.92420000  1.0 -0.1935793824
C  C42  1  0.33690000  0.34470000  0.57580000  1.0 -0.1935793824
C  C43  1  0.16310000  0.65530000  0.07580000  1.0 -0.1935793824
C  C44  1  0.16310000  0.84470000  0.42420000  1.0 -0.1935793824
C  C45  1  0.66310000  0.84470000  0.07580000  1.0 -0.1935793824
C  C46  1  0.66310000  0.65530000  0.42420000  1.0 -0.1935793824
C  C47  1  0.83690000  0.34470000  0.92420000  1.0 -0.1935793824
C  C48  1  0.83690000  0.15530000  0.57580000  1.0 -0.1935793824
C  C49  1  0.10420000  0.15490000  0.91140000  1.0 -0.1935793824
C  C50  1  0.10420000  0.34510000  0.58860000  1.0 -0.1935793824
C  C51  1  0.39580000  0.65490000  0.08860000  1.0 -0.1935793824
C  C52  1  0.39580000  0.84510000  0.41140000  1.0 -0.1935793824
C  C53  1  0.89580000  0.84510000  0.08860000  1.0 -0.1935793824
C  C54  1  0.89580000  0.65490000  0.41140000  1.0 -0.1935793824
C  C55  1  0.60420000  0.34510000  0.91140000  1.0 -0.1935793824
C  C56  1  0.60420000  0.15490000  0.58860000  1.0 -0.1935793824
C  C57  1  0.86450000  0.10960000  0.05070000  1.0 0.1209623519
C  C58  1  0.86450000  0.39040000  0.44930000  1.0 0.1209623519
C  C59  1  0.63550000  0.60960000  0.94930000  1.0 0.1209623519
C  C60  1  0.63550000  0.89040000  0.55070000  1.0 0.1209623519
C  C61  1  0.13550000  0.89040000  0.94930000  1.0 0.1209623519
C  C62  1  0.13550000  0.60960000  0.55070000  1.0 0.1209623519
C  C63  1  0.36450000  0.39040000  0.05070000  1.0 0.1209623519
C  C64  1  0.36450000  0.10960000  0.44930000  1.0 0.1209623519
C  C65  1  0.07370000  0.13070000  0.00050000  1.0 0.2096927742
C  C66  1  0.07370000  0.36930000  0.49950000  1.0 0.2096927742
C  C67  1  0.42630000  0.63070000  0.99950000  1.0 0.2096927742
C  C68  1  0.42630000  0.86930000  0.50050000  1.0 0.2096927742
C  C69  1  0.92630000  0.86930000  0.99950000  1.0 0.2096927742
C  C70  1  0.92630000  0.63070000  0.50050000  1.0 0.2096927742
C  C71  1  0.57370000  0.36930000  0.00050000  1.0 0.2096927742
C  C72  1  0.57370000  0.13070000  0.49950000  1.0 0.2096927742
C  C73  1  0.23470000  0.98870000  0.10600000  1.0 -0.261271652
C  C74  1  0.23470000  0.51130000  0.39400000  1.0 -0.261271652
C  C75  1  0.26530000  0.48870000  0.89400000  1.0 -0.261271652
C  C76  1  0.26530000  0.01130000  0.60600000  1.0 -0.261271652
C  C77  1  0.76530000  0.01130000  0.89400000  1.0 -0.261271652
C  C78  1  0.76530000  0.48870000  0.60600000  1.0 -0.261271652
C  C79  1  0.73470000  0.51130000  0.10600000  1.0 -0.261271652
C  C80  1  0.73470000  0.98870000  0.39400000  1.0 -0.261271652
C  C81  1  0.27980000  0.95410000  0.14130000  1.0 -0.0775463322
C  C82  1  0.27980000  0.54590000  0.35870000  1.0 -0.0775463322
C  C83  1  0.22020000  0.45410000  0.85870000  1.0 -0.0775463322
C  C84  1  0.22020000  0.04590000  0.64130000  1.0 -0.0775463322
C  C85  1  0.72020000  0.04590000  0.85870000  1.0 -0.0775463322
C  C86  1  0.72020000  0.45410000  0.64130000  1.0 -0.0775463322
C  C87  1  0.77980000  0.54590000  0.14130000  1.0 -0.0775463322
C  C88  1  0.77980000  0.95410000  0.35870000  1.0 -0.0775463322
C  C89  1  0.61260000  0.11140000  0.02050000  1.0 -0.1301373673
C  C90  1  0.61260000  0.38860000  0.47950000  1.0 -0.1301373673
C  C91  1  0.88740000  0.61140000  0.97950000  1.0 -0.1301373673
C  C92  1  0.88740000  0.88860000  0.52050000  1.0 -0.1301373673
C  C93  1  0.38740000  0.88860000  0.97950000  1.0 -0.1301373673
C  C94  1  0.38740000  0.61140000  0.52050000  1.0 -0.1301373673
C  C95  1  0.11260000  0.38860000  0.02050000  1.0 -0.1301373673
C  C96  1  0.11260000  0.11140000  0.47950000  1.0 -0.1301373673
C  C97  1  0.36390000  0.16600000  0.88550000  1.0 -0.0775463322
C  C98  1  0.36390000  0.33400000  0.61450000  1.0 -0.0775463322
C  C99  1  0.13610000  0.66600000  0.11450000  1.0 -0.0775463322
C  C100  1  0.13610000  0.83400000  0.38550000  1.0 -0.0775463322
C  C101  1  0.63610000  0.83400000  0.11450000  1.0 -0.0775463322
C  C102  1  0.63610000  0.66600000  0.38550000  1.0 -0.0775463322
C  C103  1  0.86390000  0.33400000  0.88550000  1.0 -0.0775463322
C  C104  1  0.86390000  0.16600000  0.61450000  1.0 -0.0775463322
C  C105  1  0.36050000  0.01780000  0.16420000  1.0 0.000136708
C  C106  1  0.36050000  0.48220000  0.33580000  1.0 0.000136708
C  C107  1  0.13950000  0.51780000  0.83580000  1.0 0.000136708
C  C108  1  0.13950000  0.98220000  0.66420000  1.0 0.000136708
C  C109  1  0.63950000  0.98220000  0.83580000  1.0 0.000136708
C  C110  1  0.63950000  0.51780000  0.66420000  1.0 0.000136708
C  C111  1  0.86050000  0.48220000  0.16420000  1.0 0.000136708
C  C112  1  0.86050000  0.01780000  0.33580000  1.0 0.000136708
C  C113  1  0.71970000  0.12370000  0.99520000  1.0 -0.218097875
C  C114  1  0.71970000  0.37630000  0.50480000  1.0 -0.218097875
C  C115  1  0.78030000  0.62370000  0.00480000  1.0 -0.218097875
C  C116  1  0.78030000  0.87630000  0.49520000  1.0 -0.218097875
C  C117  1  0.28030000  0.87630000  0.00480000  1.0 -0.218097875
C  C118  1  0.28030000  0.62370000  0.49520000  1.0 -0.218097875
C  C119  1  0.21970000  0.37630000  0.99520000  1.0 -0.218097875
C  C120  1  0.21970000  0.12370000  0.50480000  1.0 -0.218097875
C  C121  1  0.41610000  0.98110000  0.20310000  1.0 0.5836516916
C  C122  1  0.41610000  0.51890000  0.29690000  1.0 0.5836516916
C  C123  1  0.08390000  0.48110000  0.79690000  1.0 0.5836516916
C  C124  1  0.08390000  0.01890000  0.70310000  1.0 0.5836516916
C  C125  1  0.58390000  0.01890000  0.79690000  1.0 0.5836516916
C  C126  1  0.58390000  0.48110000  0.70310000  1.0 0.5836516916
C  C127  1  0.91610000  0.51890000  0.20310000  1.0 0.5836516916
C  C128  1  0.91610000  0.98110000  0.29690000  1.0 0.5836516916
C  C129  1  0.09800000  0.11700000  0.04310000  1.0 0.2355158551
C  C130  1  0.09800000  0.38300000  0.45690000  1.0 0.2355158551
C  C131  1  0.40200000  0.61700000  0.95690000  1.0 0.2355158551
C  C132  1  0.40200000  0.88300000  0.54310000  1.0 0.2355158551
C  C133  1  0.90200000  0.88300000  0.95690000  1.0 0.2355158551
C  C134  1  0.90200000  0.61700000  0.54310000  1.0 0.2355158551
C  C135  1  0.59800000  0.38300000  0.04310000  1.0 0.2355158551
C  C136  1  0.59800000  0.11700000  0.45690000  1.0 0.2355158551
C  C137  1  0.76060000  0.09610000  0.07610000  1.0 -0.1981803963
C  C138  1  0.76060000  0.40390000  0.42390000  1.0 -0.1981803963
C  C139  1  0.73940000  0.59610000  0.92390000  1.0 -0.1981803963
C  C140  1  0.73940000  0.90390000  0.57610000  1.0 -0.1981803963
C  C141  1  0.23940000  0.90390000  0.92390000  1.0 -0.1981803963
C  C142  1  0.23940000  0.59610000  0.57610000  1.0 -0.1981803963
C  C143  1  0.26060000  0.40390000  0.07610000  1.0 -0.1981803963
C  C144  1  0.26060000  0.09610000  0.42390000  1.0 -0.1981803963
C  C145  1  0.63180000  0.09780000  0.06090000  1.0 -0.106659704
C  C146  1  0.63180000  0.40220000  0.43910000  1.0 -0.106659704
C  C147  1  0.86820000  0.59780000  0.93910000  1.0 -0.106659704
C  C148  1  0.86820000  0.90220000  0.56090000  1.0 -0.106659704
C  C149  1  0.36820000  0.90220000  0.93910000  1.0 -0.106659704
C  C150  1  0.36820000  0.59780000  0.56090000  1.0 -0.106659704
C  C151  1  0.13180000  0.40220000  0.06090000  1.0 -0.106659704
C  C152  1  0.13180000  0.09780000  0.43910000  1.0 -0.106659704
C  C153  1  0.26430000  0.08580000  0.09200000  1.0 0.2255608066
C  C154  1  0.26430000  0.41420000  0.40800000  1.0 0.2255608066
C  C155  1  0.23570000  0.58580000  0.90800000  1.0 0.2255608066
C  C156  1  0.23570000  0.91420000  0.59200000  1.0 0.2255608066
C  C157  1  0.73570000  0.91420000  0.90800000  1.0 0.2255608066
C  C158  1  0.73570000  0.58580000  0.59200000  1.0 0.2255608066
C  C159  1  0.76430000  0.41420000  0.09200000  1.0 0.2255608066
C  C160  1  0.76430000  0.08580000  0.40800000  1.0 0.2255608066
C  C161  1  0.34510000  0.15110000  0.11580000  1.0 -0.2976486163
C  C162  1  0.34510000  0.34890000  0.38420000  1.0 -0.2976486163
C  C163  1  0.15490000  0.65110000  0.88420000  1.0 -0.2976486163
C  C164  1  0.15490000  0.84890000  0.61580000  1.0 -0.2976486163
C  C165  1  0.65490000  0.84890000  0.88420000  1.0 -0.2976486163
C  C166  1  0.65490000  0.65110000  0.61580000  1.0 -0.2976486163
C  C167  1  0.84510000  0.34890000  0.11580000  1.0 -0.2976486163
C  C168  1  0.84510000  0.15110000  0.38420000  1.0 -0.2976486163
C  C169  1  0.39530000  0.11490000  0.15060000  1.0 -0.0721203817
C  C170  1  0.39530000  0.38510000  0.34940000  1.0 -0.0721203817
C  C171  1  0.10470000  0.61490000  0.84940000  1.0 -0.0721203817
C  C172  1  0.10470000  0.88510000  0.65060000  1.0 -0.0721203817
C  C173  1  0.60470000  0.88510000  0.84940000  1.0 -0.0721203817
C  C174  1  0.60470000  0.61490000  0.65060000  1.0 -0.0721203817
C  C175  1  0.89530000  0.38510000  0.15060000  1.0 -0.0721203817
C  C176  1  0.89530000  0.11490000  0.34940000  1.0 -0.0721203817
N  N1  1  0.18710000  0.13750000  0.97940000  1.0 -0.3800771945
N  N2  1  0.18710000  0.36250000  0.52060000  1.0 -0.3800771945
N  N3  1  0.31290000  0.63750000  0.02060000  1.0 -0.3800771945
N  N4  1  0.31290000  0.86250000  0.47940000  1.0 -0.3800771945
N  N5  1  0.81290000  0.86250000  0.02060000  1.0 -0.3800771945
N  N6  1  0.81290000  0.63750000  0.47940000  1.0 -0.3800771945
N  N7  1  0.68710000  0.36250000  0.97940000  1.0 -0.3800771945
N  N8  1  0.68710000  0.13750000  0.52060000  1.0 -0.3800771945
N  N9  1  0.95590000  0.13030000  0.98560000  1.0 -0.3510247619
N  N10  1  0.95590000  0.36970000  0.51440000  1.0 -0.3510247619
N  N11  1  0.54410000  0.63030000  0.01440000  1.0 -0.3510247619
N  N12  1  0.54410000  0.86970000  0.48560000  1.0 -0.3510247619
N  N13  1  0.04410000  0.86970000  0.01440000  1.0 -0.3510247619
N  N14  1  0.04410000  0.63030000  0.48560000  1.0 -0.3510247619
N  N15  1  0.45590000  0.36970000  0.98560000  1.0 -0.3510247619
N  N16  1  0.45590000  0.13030000  0.51440000  1.0 -0.3510247619
N  N17  1  0.99190000  0.10910000  0.06660000  1.0 -0.3617922888
N  N18  1  0.99190000  0.39090000  0.43340000  1.0 -0.3617922888
N  N19  1  0.50810000  0.60910000  0.93340000  1.0 -0.3617922888
N  N20  1  0.50810000  0.89090000  0.56660000  1.0 -0.3617922888
N  N21  1  0.00810000  0.89090000  0.93340000  1.0 -0.3617922888
N  N22  1  0.00810000  0.60910000  0.56660000  1.0 -0.3617922888
N  N23  1  0.49190000  0.39090000  0.06660000  1.0 -0.3617922888
N  N24  1  0.49190000  0.10910000  0.43340000  1.0 -0.3617922888
N  N25  1  0.21900000  0.13300000  0.05610000  1.0 -0.106659704
N  N26  1  0.21900000  0.36700000  0.44390000  1.0 -0.106659704
N  N27  1  0.28100000  0.63300000  0.94390000  1.0 -0.106659704
N  N28  1  0.28100000  0.86700000  0.55610000  1.0 -0.106659704
N  N29  1  0.78100000  0.86700000  0.94390000  1.0 -0.106659704
N  N30  1  0.78100000  0.63300000  0.55610000  1.0 -0.106659704
N  N31  1  0.71900000  0.36700000  0.05610000  1.0 -0.106659704
N  N32  1  0.71900000  0.13300000  0.44390000  1.0 -0.106659704
N  N33  1  0.23400000  0.09800000  0.05320000  1.0 -0.0870969353
N  N34  1  0.23400000  0.40200000  0.44680000  1.0 -0.0870969353
N  N35  1  0.26600000  0.59800000  0.94680000  1.0 -0.0870969353
N  N36  1  0.26600000  0.90200000  0.55320000  1.0 -0.0870969353
N  N37  1  0.76600000  0.90200000  0.94680000  1.0 -0.0870969353
N  N38  1  0.76600000  0.59800000  0.55320000  1.0 -0.0870969353
N  N39  1  0.73400000  0.40200000  0.05320000  1.0 -0.0870969353
N  N40  1  0.73400000  0.09800000  0.44680000  1.0 -0.0870969353
O  O1  1  0.19520000  0.18530000  0.79177000  1.0 -0.6330969484
O  O2  1  0.19520000  0.31470000  0.70823000  1.0 -0.6330969484
O  O3  1  0.30480000  0.68530000  0.20823000  1.0 -0.6330969484
O  O4  1  0.30480000  0.81470000  0.29177000  1.0 -0.6330969484
O  O5  1  0.80480000  0.81470000  0.20823000  1.0 -0.6330969484
O  O6  1  0.80480000  0.68530000  0.29177000  1.0 -0.6330969484
O  O7  1  0.69520000  0.31470000  0.79177000  1.0 -0.6330969484
O  O8  1  0.69520000  0.18530000  0.70823000  1.0 -0.6330969484
O  O9  1  0.91380000  0.10260000  0.77380000  1.0 -0.768223405
O  O10  1  0.91380000  0.39740000  0.72620000  1.0 -0.768223405
O  O11  1  0.58620000  0.60260000  0.22620000  1.0 -0.768223405
O  O12  1  0.58620000  0.89740000  0.27380000  1.0 -0.768223405
O  O13  1  0.08620000  0.89740000  0.22620000  1.0 -0.768223405
O  O14  1  0.08620000  0.60260000  0.27380000  1.0 -0.768223405
O  O15  1  0.41380000  0.39740000  0.77380000  1.0 -0.768223405
O  O16  1  0.41380000  0.10260000  0.72620000  1.0 -0.768223405
O  O17  1  0.36650000  0.90380000  0.21780000  1.0 -0.6330969484
O  O18  1  0.36650000  0.59620000  0.28220000  1.0 -0.6330969484
O  O19  1  0.13350000  0.40380000  0.78220000  1.0 -0.6330969484
O  O20  1  0.13350000  0.09620000  0.71780000  1.0 -0.6330969484
O  O21  1  0.63350000  0.09620000  0.78220000  1.0 -0.6330969484
O  O22  1  0.63350000  0.40380000  0.71780000  1.0 -0.6330969484
O  O23  1  0.86650000  0.59620000  0.21780000  1.0 -0.6330969484
O  O24  1  0.86650000  0.90380000  0.28220000  1.0 -0.6330969484
O  O25  1  0.51060000  0.02820000  0.21760000  1.0 -0.5017136485
O  O26  1  0.51060000  0.47180000  0.28240000  1.0 -0.5017136485
O  O27  1  0.98940000  0.52820000  0.78240000  1.0 -0.5017136485
O  O28  1  0.98940000  0.97180000  0.71760000  1.0 -0.5017136485
O  O29  1  0.48940000  0.97180000  0.78240000  1.0 -0.5017136485
O  O30  1  0.48940000  0.52820000  0.71760000  1.0 -0.5017136485
O  O31  1  0.01060000  0.47180000  0.21760000  1.0 -0.5017136485
O  O32  1  0.01060000  0.02820000  0.28240000  1.0 -0.5017136485
O  O33  1  0.40630000  0.20730000  0.80560000  1.0 -0.6330969484
O  O34  1  0.40630000  0.29270000  0.69440000  1.0 -0.6330969484
O  O35  1  0.09370000  0.70730000  0.19440000  1.0 -0.6330969484
O  O36  1  0.09370000  0.79270000  0.30560000  1.0 -0.6330969484
O  O37  1  0.59370000  0.79270000  0.19440000  1.0 -0.6330969484
O  O38  1  0.59370000  0.70730000  0.30560000  1.0 -0.6330969484
O  O39  1  0.90630000  0.29270000  0.80560000  1.0 -0.6330969484
O  O40  1  0.90630000  0.20730000  0.69440000  1.0 -0.6330969484
