# DDEC6 charges by PACMAN v1.1 (https://github.com/mtap-research/PACMAN-charge/)
data_ZOVHUQ_ASR_pacman
_symmetry_space_group_name_H-M   'P 1'
_cell_length_a   14.26060000
_cell_length_b   15.43700000
_cell_length_c   24.06000000
_cell_angle_alpha   90.00000000
_cell_angle_beta   90.00000000
_cell_angle_gamma   90.00000000
_symmetry_Int_Tables_number   1
_chemical_formula_structural   AlC6SO5
_chemical_formula_sum   'Al16 C96 S16 O80'
_cell_volume   5296.58962573
_cell_formula_units_Z   16
loop_
 _symmetry_equiv_pos_site_id
 _symmetry_equiv_pos_as_xyz
  1  'x, y, z'
loop_
 _atom_site_type_symbol
 _atom_site_label
 _atom_site_symmetry_multiplicity
 _atom_site_fract_x
 _atom_site_fract_y
 _atom_site_fract_z
 _atom_site_occupancy
 _atom_site_charge
Al  Al1  1  0.70900000  0.38800000  0.83860000  1.0 1.5914385607
Al  Al2  1  0.72800000  0.45500000  0.70300000  1.0 1.6009524455
Al  Al3  1  0.74000000  0.49500000  0.56700000  1.0 1.5830783238
Al  Al4  1  0.83100000  0.42900000  0.95470000  1.0 1.5384978344
Al  Al5  1  0.70900000  0.61200000  0.16140000  1.0 1.5914385607
Al  Al6  1  0.72800000  0.54500000  0.29700000  1.0 1.6009524455
Al  Al7  1  0.74000000  0.50500000  0.43300000  1.0 1.5830783238
Al  Al8  1  0.83100000  0.57100000  0.04530000  1.0 1.5384978344
Al  Al9  1  0.29100000  0.11200000  0.33860000  1.0 1.5914385607
Al  Al10  1  0.27200000  0.04500000  0.20300000  1.0 1.6009524455
Al  Al11  1  0.26000000  0.00500000  0.06700000  1.0 1.5830783238
Al  Al12  1  0.16900000  0.07100000  0.45470000  1.0 1.5384978344
Al  Al13  1  0.29100000  0.88800000  0.66140000  1.0 1.5914385607
Al  Al14  1  0.27200000  0.95500000  0.79700000  1.0 1.6009524455
Al  Al15  1  0.26000000  0.99500000  0.93300000  1.0 1.5830783238
Al  Al16  1  0.16900000  0.92900000  0.54530000  1.0 1.5384978344
C  C1  1  0.56300000  0.23000000  0.71920000  1.0 -0.1588342125
C  C2  1  0.55700000  0.20400000  0.66540000  1.0 0.0174080454
C  C3  1  0.49500000  0.13400000  0.65910000  1.0 0.0415386857
C  C4  1  0.45600000  0.11000000  0.70830000  1.0 -0.1708173246
C  C5  1  0.62100000  0.30100000  0.74300000  1.0 0.6578754438
C  C6  1  0.38800000  0.04000000  0.72000000  1.0 0.6578754438
C  C7  1  0.59200000  0.26200000  0.97660000  1.0 -0.1708173246
C  C8  1  0.58400000  0.24900000  0.03230000  1.0 0.0456147557
C  C9  1  0.51100000  0.19100000  0.04490000  1.0 0.0415386857
C  C10  1  0.46700000  0.16200000  0.99840000  1.0 -0.1588342125
C  C11  1  0.65900000  0.31800000  0.94600000  1.0 0.6578754438
C  C12  1  0.38700000  0.10000000  0.99300000  1.0 0.6470445172
C  C13  1  0.89100000  0.26500000  0.61690000  1.0 -0.1708173246
C  C14  1  0.91000000  0.20800000  0.65830000  1.0 0.0174080454
C  C15  1  0.97300000  0.14300000  0.64080000  1.0 0.0174080454
C  C16  1  0.99800000  0.15300000  0.58680000  1.0 -0.1540666735
C  C17  1  0.82900000  0.34200000  0.61800000  1.0 0.6578754438
C  C18  1  0.06300000  0.09900000  0.55260000  1.0 0.6434237318
C  C19  1  0.06200000  0.13100000  0.83760000  1.0 -0.1708173246
C  C20  1  0.01100000  0.14300000  0.79050000  1.0 0.0415386857
C  C21  1  0.93900000  0.20400000  0.79790000  1.0 0.0174080454
C  C22  1  0.93800000  0.23700000  0.85030000  1.0 -0.1588342125
C  C23  1  0.14300000  0.07300000  0.84700000  1.0 0.6470445172
C  C24  1  0.87500000  0.30300000  0.87500000  1.0 0.6434237318
C  C25  1  0.56300000  0.77000000  0.28080000  1.0 -0.1588342125
C  C26  1  0.55700000  0.79600000  0.33460000  1.0 0.0174080454
C  C27  1  0.49500000  0.86600000  0.34090000  1.0 0.0415386857
C  C28  1  0.45600000  0.89000000  0.29170000  1.0 -0.1757221738
C  C29  1  0.62100000  0.69900000  0.25700000  1.0 0.6578754438
C  C30  1  0.38800000  0.96000000  0.28000000  1.0 0.6578754438
C  C31  1  0.59200000  0.73800000  0.02340000  1.0 -0.1708173246
C  C32  1  0.58400000  0.75100000  0.96770000  1.0 0.0415386857
C  C33  1  0.51100000  0.80900000  0.95510000  1.0 0.0415386857
C  C34  1  0.46700000  0.83800000  0.00160000  1.0 -0.1540666735
C  C35  1  0.65900000  0.68200000  0.05400000  1.0 0.6578754438
C  C36  1  0.38700000  0.90000000  0.00700000  1.0 0.6470445172
C  C37  1  0.89100000  0.73500000  0.38310000  1.0 -0.1708173246
C  C38  1  0.91000000  0.79200000  0.34170000  1.0 0.0259425109
C  C39  1  0.97300000  0.85700000  0.35920000  1.0 0.0174080454
C  C40  1  0.99800000  0.84700000  0.41320000  1.0 -0.1540666735
C  C41  1  0.82900000  0.65800000  0.38200000  1.0 0.6578754438
C  C42  1  0.06300000  0.90100000  0.44740000  1.0 0.6434237318
C  C43  1  0.06200000  0.86900000  0.16240000  1.0 -0.1708173246
C  C44  1  0.01100000  0.85700000  0.20950000  1.0 0.0415386857
C  C45  1  0.93900000  0.79600000  0.20210000  1.0 0.0174080454
C  C46  1  0.93800000  0.76300000  0.14970000  1.0 -0.1540666735
C  C47  1  0.14300000  0.92700000  0.15300000  1.0 0.6470445172
C  C48  1  0.87500000  0.69700000  0.12500000  1.0 0.6434237318
C  C49  1  0.43700000  0.27000000  0.21920000  1.0 -0.1588342125
C  C50  1  0.44300000  0.29600000  0.16540000  1.0 0.0174080454
C  C51  1  0.50500000  0.36600000  0.15910000  1.0 0.0415386857
C  C52  1  0.54400000  0.39000000  0.20830000  1.0 -0.1757221738
C  C53  1  0.37900000  0.19900000  0.24300000  1.0 0.6578754438
C  C54  1  0.61200000  0.46000000  0.22000000  1.0 0.6578754438
C  C55  1  0.40800000  0.23800000  0.47660000  1.0 -0.1708173246
C  C56  1  0.41600000  0.25100000  0.53230000  1.0 0.0415386857
C  C57  1  0.48900000  0.30900000  0.54490000  1.0 0.0415386857
C  C58  1  0.53300000  0.33800000  0.49840000  1.0 -0.1540666735
C  C59  1  0.34100000  0.18200000  0.44600000  1.0 0.6578754438
C  C60  1  0.61300000  0.40000000  0.49300000  1.0 0.6470445172
C  C61  1  0.10900000  0.23500000  0.11690000  1.0 -0.1708173246
C  C62  1  0.09000000  0.29200000  0.15830000  1.0 0.0174080454
C  C63  1  0.02700000  0.35700000  0.14080000  1.0 0.0174080454
C  C64  1  0.00200000  0.34700000  0.08680000  1.0 -0.1540666735
C  C65  1  0.17100000  0.15800000  0.11800000  1.0 0.6578754438
C  C66  1  0.93700000  0.40100000  0.05260000  1.0 0.6434237318
C  C67  1  0.93800000  0.36900000  0.33760000  1.0 -0.1757221738
C  C68  1  0.98900000  0.35700000  0.29050000  1.0 0.0415386857
C  C69  1  0.06100000  0.29600000  0.29790000  1.0 0.0174080454
C  C70  1  0.06200000  0.26300000  0.35030000  1.0 -0.1588342125
C  C71  1  0.85700000  0.42700000  0.34700000  1.0 0.6434237318
C  C72  1  0.12500000  0.19700000  0.37500000  1.0 0.6434237318
C  C73  1  0.43700000  0.73000000  0.78080000  1.0 -0.1588342125
C  C74  1  0.44300000  0.70400000  0.83460000  1.0 0.0174080454
C  C75  1  0.50500000  0.63400000  0.84090000  1.0 0.0415386857
C  C76  1  0.54400000  0.61000000  0.79170000  1.0 -0.1757221738
C  C77  1  0.37900000  0.80100000  0.75700000  1.0 0.6578754438
C  C78  1  0.61200000  0.54000000  0.78000000  1.0 0.6578754438
C  C79  1  0.40800000  0.76200000  0.52340000  1.0 -0.1708173246
C  C80  1  0.41600000  0.74900000  0.46770000  1.0 0.0415386857
C  C81  1  0.48900000  0.69100000  0.45510000  1.0 0.0415386857
C  C82  1  0.53300000  0.66200000  0.50160000  1.0 -0.1588342125
C  C83  1  0.34100000  0.81800000  0.55400000  1.0 0.6578754438
C  C84  1  0.61300000  0.60000000  0.50700000  1.0 0.6470445172
C  C85  1  0.10900000  0.76500000  0.88310000  1.0 -0.1757221738
C  C86  1  0.09000000  0.70800000  0.84170000  1.0 0.0174080454
C  C87  1  0.02700000  0.64300000  0.85920000  1.0 0.0174080454
C  C88  1  0.00200000  0.65300000  0.91320000  1.0 -0.1540666735
C  C89  1  0.17100000  0.84200000  0.88200000  1.0 0.6578754438
C  C90  1  0.93700000  0.59900000  0.94740000  1.0 0.6434237318
C  C91  1  0.93800000  0.63100000  0.66240000  1.0 -0.1708173246
C  C92  1  0.98900000  0.64300000  0.70950000  1.0 0.0415386857
C  C93  1  0.06100000  0.70400000  0.70210000  1.0 0.0174080454
C  C94  1  0.06200000  0.73700000  0.64970000  1.0 -0.1540666735
C  C95  1  0.85700000  0.57300000  0.65300000  1.0 0.6470445172
C  C96  1  0.12500000  0.80300000  0.62500000  1.0 0.6434237318
S  S1  1  0.49400000  0.17100000  0.76280000  1.0 0.1592624271
S  S2  1  0.51300000  0.20460000  0.93890000  1.0 0.1592624271
S  S3  1  0.94760000  0.24140000  0.55650000  1.0 0.1592624271
S  S4  1  0.02400000  0.19400000  0.89130000  1.0 0.1592624271
S  S5  1  0.49400000  0.82900000  0.23720000  1.0 0.1592624271
S  S6  1  0.51300000  0.79540000  0.06110000  1.0 0.1592624271
S  S7  1  0.94760000  0.75860000  0.44350000  1.0 0.1592624271
S  S8  1  0.02400000  0.80600000  0.10870000  1.0 0.1592624271
S  S9  1  0.50600000  0.32900000  0.26280000  1.0 0.1592624271
S  S10  1  0.48700000  0.29540000  0.43890000  1.0 0.1592624271
S  S11  1  0.05240000  0.25860000  0.05650000  1.0 0.1592624271
S  S12  1  0.97600000  0.30600000  0.39130000  1.0 0.1592624271
S  S13  1  0.50600000  0.67100000  0.73720000  1.0 0.1592624271
S  S14  1  0.48700000  0.70460000  0.56110000  1.0 0.1592624271
S  S15  1  0.05240000  0.74140000  0.94350000  1.0 0.1592624271
S  S16  1  0.97600000  0.69400000  0.60870000  1.0 0.1592624271
O  O1  1  0.67000000  0.48100000  0.63200000  1.0 -0.7499861131
O  O2  1  0.77800000  0.43000000  0.77500000  1.0 -0.7656925926
O  O3  1  0.64600000  0.36500000  0.71300000  1.0 -0.5213668853
O  O4  1  0.64400000  0.29800000  0.79400000  1.0 -0.5213668853
O  O5  1  0.33600000  0.04400000  0.76300000  1.0 -0.4988981763
O  O6  1  0.38100000  0.97600000  0.68700000  1.0 -0.5213668853
O  O7  1  0.64100000  0.34300000  0.89700000  1.0 -0.5103326673
O  O8  1  0.73600000  0.34100000  0.96900000  1.0 -0.4988981763
O  O9  1  0.36200000  0.05600000  0.03500000  1.0 -0.4930314468
O  O10  1  0.34500000  0.09200000  0.94700000  1.0 -0.4930314468
O  O11  1  0.81900000  0.38800000  0.57400000  1.0 -0.4988981763
O  O12  1  0.78600000  0.36300000  0.66200000  1.0 -0.4988981763
O  O13  1  0.07400000  0.02000000  0.56400000  1.0 -0.4988981763
O  O14  1  0.10600000  0.13300000  0.51200000  1.0 -0.5410568724
O  O15  1  0.19200000  0.04700000  0.80700000  1.0 -0.5103326673
O  O16  1  0.16300000  0.04900000  0.89700000  1.0 -0.530662396
O  O17  1  0.90700000  0.35900000  0.90900000  1.0 -0.530662396
O  O18  1  0.78900000  0.30400000  0.86200000  1.0 -0.5410568724
O  O19  1  0.76900000  0.46900000  0.88900000  1.0 -0.6126815984
O  O20  1  0.67000000  0.51900000  0.36800000  1.0 -0.7499861131
O  O21  1  0.77800000  0.57000000  0.22500000  1.0 -0.7625840018
O  O22  1  0.64600000  0.63500000  0.28700000  1.0 -0.5213668853
O  O23  1  0.64400000  0.70200000  0.20600000  1.0 -0.5213668853
O  O24  1  0.33600000  0.95600000  0.23700000  1.0 -0.4988981763
O  O25  1  0.38100000  0.02400000  0.31300000  1.0 -0.5213668853
O  O26  1  0.64100000  0.65700000  0.10300000  1.0 -0.5103326673
O  O27  1  0.73600000  0.65900000  0.03100000  1.0 -0.4988981763
O  O28  1  0.36200000  0.94400000  0.96500000  1.0 -0.4930314468
O  O29  1  0.34500000  0.90800000  0.05300000  1.0 -0.4930314468
O  O30  1  0.81900000  0.61200000  0.42600000  1.0 -0.4988981763
O  O31  1  0.78600000  0.63700000  0.33800000  1.0 -0.4988981763
O  O32  1  0.07400000  0.98000000  0.43600000  1.0 -0.4988981763
O  O33  1  0.10600000  0.86700000  0.48800000  1.0 -0.5410568724
O  O34  1  0.19200000  0.95300000  0.19300000  1.0 -0.5103326673
O  O35  1  0.16300000  0.95100000  0.10300000  1.0 -0.530662396
O  O36  1  0.90700000  0.64100000  0.09100000  1.0 -0.530662396
O  O37  1  0.78900000  0.69600000  0.13800000  1.0 -0.5410568724
O  O38  1  0.76900000  0.53100000  0.11100000  1.0 -0.6126815984
O  O39  1  0.33000000  0.01900000  0.13200000  1.0 -0.7499861131
O  O40  1  0.22200000  0.07000000  0.27500000  1.0 -0.7625840018
O  O41  1  0.35400000  0.13500000  0.21300000  1.0 -0.5213668853
O  O42  1  0.35600000  0.20200000  0.29400000  1.0 -0.5213668853
O  O43  1  0.66400000  0.45600000  0.26300000  1.0 -0.4988981763
O  O44  1  0.61900000  0.52400000  0.18700000  1.0 -0.5213668853
O  O45  1  0.35900000  0.15700000  0.39700000  1.0 -0.5103326673
O  O46  1  0.26400000  0.15900000  0.46900000  1.0 -0.4988981763
O  O47  1  0.63800000  0.44400000  0.53500000  1.0 -0.4930314468
O  O48  1  0.65500000  0.40800000  0.44700000  1.0 -0.4930314468
O  O49  1  0.18100000  0.11200000  0.07400000  1.0 -0.4988981763
O  O50  1  0.21400000  0.13700000  0.16200000  1.0 -0.4988981763
O  O51  1  0.92600000  0.48000000  0.06400000  1.0 -0.4988981763
O  O52  1  0.89400000  0.36700000  0.01200000  1.0 -0.5410568724
O  O53  1  0.80800000  0.45300000  0.30700000  1.0 -0.5103326673
O  O54  1  0.83700000  0.45100000  0.39700000  1.0 -0.530662396
O  O55  1  0.09300000  0.14100000  0.40900000  1.0 -0.530662396
O  O56  1  0.21100000  0.19600000  0.36200000  1.0 -0.5410568724
O  O57  1  0.23100000  0.03100000  0.38900000  1.0 -0.6175554703
O  O58  1  0.33000000  0.98100000  0.86800000  1.0 -0.7499861131
O  O59  1  0.22200000  0.93000000  0.72500000  1.0 -0.7656925926
O  O60  1  0.35400000  0.86500000  0.78700000  1.0 -0.5213668853
O  O61  1  0.35600000  0.79800000  0.70600000  1.0 -0.5213668853
O  O62  1  0.66400000  0.54400000  0.73700000  1.0 -0.4988981763
O  O63  1  0.61900000  0.47600000  0.81300000  1.0 -0.5213668853
O  O64  1  0.35900000  0.84300000  0.60300000  1.0 -0.5103326673
O  O65  1  0.26400000  0.84100000  0.53100000  1.0 -0.4988981763
O  O66  1  0.63800000  0.55600000  0.46500000  1.0 -0.4930314468
O  O67  1  0.65500000  0.59200000  0.55300000  1.0 -0.4930314468
O  O68  1  0.18100000  0.88800000  0.92600000  1.0 -0.4988981763
O  O69  1  0.21400000  0.86300000  0.83800000  1.0 -0.4988981763
O  O70  1  0.92600000  0.52000000  0.93600000  1.0 -0.4988981763
O  O71  1  0.89400000  0.63300000  0.98800000  1.0 -0.5410568724
O  O72  1  0.80800000  0.54700000  0.69300000  1.0 -0.5103326673
O  O73  1  0.83700000  0.54900000  0.60300000  1.0 -0.530662396
O  O74  1  0.09300000  0.85900000  0.59100000  1.0 -0.530662396
O  O75  1  0.21100000  0.80400000  0.63800000  1.0 -0.5410568724
O  O76  1  0.23100000  0.96900000  0.61100000  1.0 -0.6175554703
O  O77  1  0.81400000  0.50000000  0.50000000  1.0 -0.8328489373
O  O78  1  0.18600000  0.00000000  0.00000000  1.0 -0.8513531396
O  O79  1  0.74800000  0.50000000  0.00000000  1.0 -0.6590753505
O  O80  1  0.25200000  0.00000000  0.50000000  1.0 -0.6498670886
