# DDEC6 charges by PACMAN v1.1 (https://github.com/mtap-research/PACMAN-charge/)
data_ZUCPIZ_FSR_pacman
_symmetry_space_group_name_H-M   'P 1'
_cell_length_a   11.95790000
_cell_length_b   13.11290000
_cell_length_c   20.92500000
_cell_angle_alpha   90.00000000
_cell_angle_beta   98.67200000
_cell_angle_gamma   90.00000000
_symmetry_Int_Tables_number   1
_chemical_formula_structural   Zr3H23C37(S2O11)2
_chemical_formula_sum   'Zr6 H46 C74 S8 O44'
_cell_volume   3243.58695147
_cell_formula_units_Z   2
loop_
 _symmetry_equiv_pos_site_id
 _symmetry_equiv_pos_as_xyz
  1  'x, y, z'
loop_
 _atom_site_type_symbol
 _atom_site_label
 _atom_site_symmetry_multiplicity
 _atom_site_fract_x
 _atom_site_fract_y
 _atom_site_fract_z
 _atom_site_occupancy
 _atom_site_charge
Zr  Zr1  1  0.64916000  0.86534000  0.01524000  1.0 2.0931336906
Zr  Zr2  1  0.35084000  0.86534000  0.98476000  1.0 2.0931336906
Zr  Zr3  1  0.35084000  0.13466000  0.98476000  1.0 2.0931336906
Zr  Zr4  1  0.64916000  0.13466000  0.01524000  1.0 2.0931336906
Zr  Zr5  1  0.50576000  0.00000000  0.88312000  1.0 2.0977923896
Zr  Zr6  1  0.49424000  0.00000000  0.11688000  1.0 2.0977923896
H  H1  1  0.40105000  0.80151000  0.71644000  1.0 0.1125887438
H  H2  1  0.34051000  0.68835000  0.63180000  1.0 0.1125887438
H  H3  1  0.09802000  0.58078000  0.73010000  1.0 0.1004469905
H  H4  1  0.15856000  0.69394000  0.81473000  1.0 0.1193960633
H  H5  1  0.31960000  0.31257000  0.33223000  1.0 0.1125887438
H  H6  1  0.38149000  0.19938000  0.25850000  1.0 0.1193960633
H  H7  1  0.13852000  0.30441000  0.11780000  1.0 0.1125887438
H  H8  1  0.07662000  0.41761000  0.19153000  1.0 0.1125887438
H  H9  1  0.91069000  0.85658000  0.96750000  1.0 0.2202804562
H  H10  1  0.50924000  0.79208000  0.91101000  1.0 0.3377743464
H  H11  1  0.59895000  0.80151000  0.28356000  1.0 0.1125887438
H  H12  1  0.65949000  0.68835000  0.36820000  1.0 0.1125887438
H  H13  1  0.90198000  0.58078000  0.26990000  1.0 0.1004469905
H  H14  1  0.84144000  0.69394000  0.18527000  1.0 0.1193960633
H  H15  1  0.68040000  0.31257000  0.66777000  1.0 0.1125887438
H  H16  1  0.61851000  0.19938000  0.74150000  1.0 0.1193960633
H  H17  1  0.86148000  0.30441000  0.88220000  1.0 0.1125887438
H  H18  1  0.92338000  0.41761000  0.80847000  1.0 0.1125887438
H  H19  1  0.08931000  0.85658000  0.03250000  1.0 0.2202804562
H  H20  1  0.49076000  0.79208000  0.08899000  1.0 0.3377743464
H  H21  1  0.59895000  0.19849000  0.28356000  1.0 0.1125887438
H  H22  1  0.65949000  0.31165000  0.36820000  1.0 0.1125887438
H  H23  1  0.90198000  0.41922000  0.26990000  1.0 0.1004469905
H  H24  1  0.84144000  0.30606000  0.18527000  1.0 0.1193960633
H  H25  1  0.68040000  0.68743000  0.66777000  1.0 0.1125887438
H  H26  1  0.61851000  0.80062000  0.74150000  1.0 0.1193960633
H  H27  1  0.86148000  0.69559000  0.88220000  1.0 0.1125887438
H  H28  1  0.92338000  0.58239000  0.80847000  1.0 0.1125887438
H  H29  1  0.08931000  0.14342000  0.03250000  1.0 0.2202804562
H  H30  1  0.49076000  0.20792000  0.08899000  1.0 0.3377743464
H  H31  1  0.40105000  0.19849000  0.71644000  1.0 0.1125887438
H  H32  1  0.34051000  0.31165000  0.63180000  1.0 0.1125887438
H  H33  1  0.09802000  0.41922000  0.73010000  1.0 0.1004469905
H  H34  1  0.15856000  0.30606000  0.81473000  1.0 0.1193960633
H  H35  1  0.31960000  0.68743000  0.33223000  1.0 0.1125887438
H  H36  1  0.38149000  0.80062000  0.25850000  1.0 0.1193960633
H  H37  1  0.13852000  0.69559000  0.11780000  1.0 0.1125887438
H  H38  1  0.07662000  0.58239000  0.19153000  1.0 0.1125887438
H  H39  1  0.91069000  0.14342000  0.96750000  1.0 0.2202804562
H  H40  1  0.50924000  0.20792000  0.91101000  1.0 0.3377743464
H  H41  1  0.74182000  0.00000000  0.93822000  1.0 0.3473928895
H  H42  1  0.73348000  0.00000000  0.11040000  1.0 0.357677209
H  H43  1  0.25818000  0.00000000  0.06178000  1.0 0.3473928895
H  H44  1  0.26652000  0.00000000  0.88960000  1.0 0.357677209
H  H45  1  0.50000000  0.59131000  0.00000000  1.0 0.0922055673
H  H46  1  0.50000000  0.40869000  0.00000000  1.0 0.0922055673
C  C1  1  0.33120000  0.82900000  0.82870000  1.0 0.5763036039
C  C2  1  0.28550000  0.75840000  0.77354000  1.0 -0.016327644
C  C3  1  0.33950000  0.75670000  0.71920000  1.0 -0.1072038479
C  C4  1  0.30360000  0.68950000  0.66894000  1.0 -0.1605549848
C  C5  1  0.21360000  0.62390000  0.67299000  1.0 0.0922055673
C  C6  1  0.15950000  0.62560000  0.72730000  1.0 -0.1605549848
C  C7  1  0.19550000  0.69280000  0.77760000  1.0 -0.1035736475
C  C8  1  0.18070000  0.55070000  0.61820000  1.0 -0.0718674149
C  C9  1  0.15840000  0.44920000  0.31620000  1.0 -0.0718674149
C  C10  1  0.19230000  0.37570000  0.26881000  1.0 0.0922055673
C  C11  1  0.28280000  0.31090000  0.28870000  1.0 -0.1605549848
C  C12  1  0.31960000  0.24370000  0.24490000  1.0 -0.1072038479
C  C13  1  0.26580000  0.24130000  0.18122000  1.0 -0.016327644
C  C14  1  0.17530000  0.30610000  0.16133000  1.0 -0.1035736475
C  C15  1  0.13850000  0.37330000  0.20510000  1.0 -0.1605549848
C  C16  1  0.31380000  0.17310000  0.13380000  1.0 0.5504464086
C  C17  1  0.91930000  0.86360000  0.01320000  1.0 0.1004469905
C  C18  1  0.66880000  0.82900000  0.17130000  1.0 0.5763036039
C  C19  1  0.71450000  0.75840000  0.22646000  1.0 -0.016327644
C  C20  1  0.66050000  0.75670000  0.28080000  1.0 -0.1072038479
C  C21  1  0.69640000  0.68950000  0.33106000  1.0 -0.1605549848
C  C22  1  0.78640000  0.62390000  0.32701000  1.0 0.0922055673
C  C23  1  0.84050000  0.62560000  0.27270000  1.0 -0.1605549848
C  C24  1  0.80450000  0.69280000  0.22240000  1.0 -0.1035736475
C  C25  1  0.81930000  0.55070000  0.38180000  1.0 -0.0718674149
C  C26  1  0.84160000  0.44920000  0.68380000  1.0 -0.0718674149
C  C27  1  0.80770000  0.37570000  0.73119000  1.0 0.0922055673
C  C28  1  0.71720000  0.31090000  0.71130000  1.0 -0.1605549848
C  C29  1  0.68040000  0.24370000  0.75510000  1.0 -0.1072038479
C  C30  1  0.73420000  0.24130000  0.81878000  1.0 -0.016327644
C  C31  1  0.82470000  0.30610000  0.83867000  1.0 -0.1035736475
C  C32  1  0.86150000  0.37330000  0.79490000  1.0 -0.1605549848
C  C33  1  0.68620000  0.17310000  0.86620000  1.0 0.5504464086
C  C34  1  0.08070000  0.86360000  0.98680000  1.0 0.1004469905
C  C35  1  0.66880000  0.17100000  0.17130000  1.0 0.5763036039
C  C36  1  0.71450000  0.24160000  0.22646000  1.0 -0.016327644
C  C37  1  0.66050000  0.24330000  0.28080000  1.0 -0.1072038479
C  C38  1  0.69640000  0.31050000  0.33106000  1.0 -0.1605549848
C  C39  1  0.78640000  0.37610000  0.32701000  1.0 0.0922055673
C  C40  1  0.84050000  0.37440000  0.27270000  1.0 -0.1605549848
C  C41  1  0.80450000  0.30720000  0.22240000  1.0 -0.1035736475
C  C42  1  0.81930000  0.44930000  0.38180000  1.0 -0.0718674149
C  C43  1  0.84160000  0.55080000  0.68380000  1.0 -0.0718674149
C  C44  1  0.80770000  0.62430000  0.73119000  1.0 0.0922055673
C  C45  1  0.71720000  0.68910000  0.71130000  1.0 -0.1605549848
C  C46  1  0.68040000  0.75630000  0.75510000  1.0 -0.1072038479
C  C47  1  0.73420000  0.75870000  0.81878000  1.0 -0.016327644
C  C48  1  0.82470000  0.69390000  0.83867000  1.0 -0.1035736475
C  C49  1  0.86150000  0.62670000  0.79490000  1.0 -0.1605549848
C  C50  1  0.68620000  0.82690000  0.86620000  1.0 0.5504464086
C  C51  1  0.08070000  0.13640000  0.98680000  1.0 0.1004469905
C  C52  1  0.33120000  0.17100000  0.82870000  1.0 0.5763036039
C  C53  1  0.28550000  0.24160000  0.77354000  1.0 -0.016327644
C  C54  1  0.33950000  0.24330000  0.71920000  1.0 -0.1072038479
C  C55  1  0.30360000  0.31050000  0.66894000  1.0 -0.1605549848
C  C56  1  0.21360000  0.37610000  0.67299000  1.0 0.0922055673
C  C57  1  0.15950000  0.37440000  0.72730000  1.0 -0.1605549848
C  C58  1  0.19550000  0.30720000  0.77760000  1.0 -0.1035736475
C  C59  1  0.18070000  0.44930000  0.61820000  1.0 -0.0718674149
C  C60  1  0.15840000  0.55080000  0.31620000  1.0 -0.0718674149
C  C61  1  0.19230000  0.62430000  0.26881000  1.0 0.0922055673
C  C62  1  0.28280000  0.68910000  0.28870000  1.0 -0.1605549848
C  C63  1  0.31960000  0.75630000  0.24490000  1.0 -0.1072038479
C  C64  1  0.26580000  0.75870000  0.18122000  1.0 -0.016327644
C  C65  1  0.17530000  0.69390000  0.16133000  1.0 -0.1035736475
C  C66  1  0.13850000  0.62670000  0.20510000  1.0 -0.1605549848
C  C67  1  0.31380000  0.82690000  0.13380000  1.0 0.5504464086
C  C68  1  0.91930000  0.13640000  0.01320000  1.0 0.1004469905
C  C69  1  0.13750000  0.50000000  0.49680000  1.0 -0.1072038479
C  C70  1  0.12630000  0.50000000  0.43250000  1.0 -0.1072038479
C  C71  1  0.86250000  0.50000000  0.50320000  1.0 -0.1072038479
C  C72  1  0.87370000  0.50000000  0.56750000  1.0 -0.1072038479
C  C73  1  0.50000000  0.66380000  0.00000000  1.0 0.1589295518
C  C74  1  0.50000000  0.33620000  0.00000000  1.0 0.1589295518
S  S1  1  0.14217000  0.61197000  0.54342000  1.0 0.0534559254
S  S2  1  0.11988000  0.38844000  0.38584000  1.0 0.0381389678
S  S3  1  0.85783000  0.61197000  0.45658000  1.0 0.0534559254
S  S4  1  0.88012000  0.38844000  0.61416000  1.0 0.0381389678
S  S5  1  0.85783000  0.38803000  0.45658000  1.0 0.0534559254
S  S6  1  0.88012000  0.61156000  0.61416000  1.0 0.0381389678
S  S7  1  0.14217000  0.38803000  0.54342000  1.0 0.0534559254
S  S8  1  0.11988000  0.61156000  0.38584000  1.0 0.0381389678
O  O1  1  0.50730000  0.84620000  0.93490000  1.0 -0.3166269038
O  O2  1  0.39420000  0.89630000  0.81850000  1.0 -0.5727451715
O  O3  1  0.30060000  0.80680000  0.88270000  1.0 -0.6324901406
O  O4  1  0.28710000  0.19260000  0.07450000  1.0 -0.6423334751
O  O5  1  0.37620000  0.10580000  0.15878000  1.0 -0.5799160872
O  O6  1  0.60570000  0.69960000  0.01060000  1.0 -0.6324901406
O  O7  1  0.83270000  0.86770000  0.03700000  1.0 -0.5306067441
O  O8  1  0.50160000  0.88760000  0.94860000  1.0 -0.4191102956
O  O9  1  0.01760000  0.86740000  0.04200000  1.0 -0.1225821797
O  O10  1  0.49270000  0.84620000  0.06510000  1.0 -0.3166269038
O  O11  1  0.60580000  0.89630000  0.18150000  1.0 -0.5727451715
O  O12  1  0.69940000  0.80680000  0.11730000  1.0 -0.6324901406
O  O13  1  0.71290000  0.19260000  0.92550000  1.0 -0.6423334751
O  O14  1  0.62380000  0.10580000  0.84122000  1.0 -0.5799160872
O  O15  1  0.39430000  0.69960000  0.98940000  1.0 -0.6324901406
O  O16  1  0.16730000  0.86770000  0.96300000  1.0 -0.5306067441
O  O17  1  0.49840000  0.88760000  0.05140000  1.0 -0.4191102956
O  O18  1  0.98240000  0.86740000  0.95800000  1.0 -0.1225821797
O  O19  1  0.49270000  0.15380000  0.06510000  1.0 -0.3145780835
O  O20  1  0.60580000  0.10370000  0.18150000  1.0 -0.5727451715
O  O21  1  0.69940000  0.19320000  0.11730000  1.0 -0.6324901406
O  O22  1  0.71290000  0.80740000  0.92550000  1.0 -0.6423334751
O  O23  1  0.62380000  0.89420000  0.84122000  1.0 -0.5799160872
O  O24  1  0.39430000  0.30040000  0.98940000  1.0 -0.6324901406
O  O25  1  0.16730000  0.13230000  0.96300000  1.0 -0.5306067441
O  O26  1  0.49840000  0.11240000  0.05140000  1.0 -0.4191102956
O  O27  1  0.98240000  0.13260000  0.95800000  1.0 -0.1225821797
O  O28  1  0.50730000  0.15380000  0.93490000  1.0 -0.3166269038
O  O29  1  0.39420000  0.10370000  0.81850000  1.0 -0.5727451715
O  O30  1  0.30060000  0.19320000  0.88270000  1.0 -0.6324901406
O  O31  1  0.28710000  0.80740000  0.07450000  1.0 -0.6423334751
O  O32  1  0.37620000  0.89420000  0.15878000  1.0 -0.5799160872
O  O33  1  0.60570000  0.30040000  0.01060000  1.0 -0.6324901406
O  O34  1  0.83270000  0.13230000  0.03700000  1.0 -0.5306067441
O  O35  1  0.50160000  0.11240000  0.94860000  1.0 -0.4191102956
O  O36  1  0.01760000  0.13260000  0.04200000  1.0 -0.1225821797
O  O37  1  0.67990000  0.00000000  0.95540000  1.0 -0.3590592418
O  O38  1  0.67390000  0.00000000  0.08090000  1.0 -0.3543034915
O  O39  1  0.63230000  0.00000000  0.96220000  1.0 -0.4363205705
O  O40  1  0.62490000  0.00000000  0.06400000  1.0 -0.4259473655
O  O41  1  0.32010000  0.00000000  0.04460000  1.0 -0.3590592418
O  O42  1  0.32610000  0.00000000  0.91910000  1.0 -0.3543034915
O  O43  1  0.36770000  0.00000000  0.03780000  1.0 -0.4363205705
O  O44  1  0.37510000  0.00000000  0.93600000  1.0 -0.4259473655
