# DDEC6 charges by PACMAN v1.1 (https://github.com/mtap-research/PACMAN-charge/)
data_ZUDWUS_ASR_pacman
_symmetry_space_group_name_H-M   'P 1'
_cell_length_a   6.61180000
_cell_length_b   12.43250000
_cell_length_c   8.80750000
_cell_angle_alpha   90.00000000
_cell_angle_beta   107.72300000
_cell_angle_gamma   90.00000000
_symmetry_Int_Tables_number   1
_chemical_formula_structural   Fe5H8C6N20(O2F3)2
_chemical_formula_sum   'Fe5 H8 C6 N20 O4 F6'
_cell_volume   689.62620713
_cell_formula_units_Z   1
loop_
 _symmetry_equiv_pos_site_id
 _symmetry_equiv_pos_as_xyz
  1  'x, y, z'
loop_
 _atom_site_type_symbol
 _atom_site_label
 _atom_site_symmetry_multiplicity
 _atom_site_fract_x
 _atom_site_fract_y
 _atom_site_fract_z
 _atom_site_occupancy
 _atom_site_charge
Fe  Fe1  1  0.50000000  0.00000000  0.00000000  1.0 0.7139023722
Fe  Fe2  1  0.00000000  0.00000000  0.00000000  1.0 0.8090179146
Fe  Fe3  1  0.50000000  0.63347000  0.50000000  1.0 1.0187163532
Fe  Fe4  1  0.50000000  0.36653000  0.50000000  1.0 1.0187163532
Fe  Fe5  1  0.00000000  0.50000000  0.50000000  1.0 1.2925977886
H  H1  1  0.01350000  0.71370000  0.33710000  1.0 0.3364995301
H  H2  1  0.98650000  0.71370000  0.66290000  1.0 0.3364995301
H  H3  1  0.98650000  0.28630000  0.66290000  1.0 0.3364995301
H  H4  1  0.01350000  0.28630000  0.33710000  1.0 0.3364995301
H  H5  1  0.89200000  0.79460000  0.21980000  1.0 0.3313544498
H  H6  1  0.10800000  0.79460000  0.78020000  1.0 0.3313544498
H  H7  1  0.10800000  0.20540000  0.78020000  1.0 0.3313544498
H  H8  1  0.89200000  0.20540000  0.21980000  1.0 0.3313544498
C  C1  1  0.19180000  0.79500000  0.24070000  1.0 0.4993918419
C  C2  1  0.80820000  0.79500000  0.75930000  1.0 0.4993918419
C  C3  1  0.80820000  0.20500000  0.75930000  1.0 0.4993918419
C  C4  1  0.19180000  0.20500000  0.24070000  1.0 0.4993918419
C  C5  1  0.82400000  0.50000000  0.77100000  1.0 0.6480150999
C  C6  1  0.17600000  0.50000000  0.22900000  1.0 0.6480150999
N  N1  1  0.20280000  0.87500000  0.14110000  1.0 -0.3114776134
N  N2  1  0.79720000  0.87500000  0.85890000  1.0 -0.3114776134
N  N3  1  0.79720000  0.12500000  0.85890000  1.0 -0.3114776134
N  N4  1  0.20280000  0.12500000  0.14110000  1.0 -0.3114776134
N  N5  1  0.41100000  0.87880000  0.14990000  1.0 -0.0395997751
N  N6  1  0.58900000  0.87880000  0.85010000  1.0 -0.0395997751
N  N7  1  0.58900000  0.12120000  0.85010000  1.0 -0.0395997751
N  N8  1  0.41100000  0.12120000  0.14990000  1.0 -0.0395997751
N  N9  1  0.51880000  0.80730000  0.24940000  1.0 -0.0395997751
N  N10  1  0.48120000  0.80730000  0.75060000  1.0 -0.0395997751
N  N11  1  0.48120000  0.19270000  0.75060000  1.0 -0.0395997751
N  N12  1  0.51880000  0.19270000  0.24940000  1.0 -0.0395997751
N  N13  1  0.38380000  0.75290000  0.31080000  1.0 -0.3409638821
N  N14  1  0.61620000  0.75290000  0.68920000  1.0 -0.3409638821
N  N15  1  0.61620000  0.24710000  0.68920000  1.0 -0.3409638821
N  N16  1  0.38380000  0.24710000  0.31080000  1.0 -0.3409638821
N  N17  1  0.01030000  0.76400000  0.26940000  1.0 -0.5750703632
N  N18  1  0.98970000  0.76400000  0.73060000  1.0 -0.5745981156
N  N19  1  0.98970000  0.23600000  0.73060000  1.0 -0.5745981156
N  N20  1  0.01030000  0.23600000  0.26940000  1.0 -0.5745981156
O  O1  1  0.60610000  0.50000000  0.66600000  1.0 -0.6783394038
O  O2  1  0.39390000  0.50000000  0.33400000  1.0 -0.6783394038
O  O3  1  0.00350000  0.50000000  0.74230000  1.0 -0.5369795679
O  O4  1  0.99650000  0.50000000  0.25770000  1.0 -0.5369795679
F  F1  1  0.19580000  0.00000000  0.86120000  1.0 -0.5069895803
F  F2  1  0.80420000  0.00000000  0.13880000  1.0 -0.5069895803
F  F3  1  0.78170000  0.61945000  0.45750000  1.0 -0.5369795679
F  F4  1  0.21830000  0.61945000  0.54250000  1.0 -0.5369795679
F  F5  1  0.21830000  0.38055000  0.54250000  1.0 -0.5369795679
F  F6  1  0.78170000  0.38055000  0.45750000  1.0 -0.5369795679
