# DDEC6 charges by PACMAN v1.1 (https://github.com/mtap-research/PACMAN-charge/)
data_ZUGDAJ_ASR_pacman
_symmetry_space_group_name_H-M   'P 1'
_cell_length_a   19.04560000
_cell_length_b   19.04560000
_cell_length_c   19.04560000
_cell_angle_alpha   130.73400000
_cell_angle_beta   116.04200000
_cell_angle_gamma   84.74550000
_symmetry_Int_Tables_number   1
_chemical_formula_structural   K3H160(C24O23)4
_chemical_formula_sum   'K3 H160 C96 O92'
_cell_volume   4506.54683583
_cell_formula_units_Z   1
loop_
 _symmetry_equiv_pos_site_id
 _symmetry_equiv_pos_as_xyz
  1  'x, y, z'
loop_
 _atom_site_type_symbol
 _atom_site_label
 _atom_site_symmetry_multiplicity
 _atom_site_fract_x
 _atom_site_fract_y
 _atom_site_fract_z
 _atom_site_occupancy
 _atom_site_charge
K  K1  1  0.66956000  0.16956000  0.50000000  1.0 0.7705603843
K  K2  1  0.33044000  0.83044000  0.50000000  1.0 0.7705603843
K  K3  1  0.50000000  0.50000000  0.00000000  1.0 0.7815864687
H  H1  1  0.23070000  0.35920000  0.77830000  1.0 0.3376343301
H  H2  1  0.61360000  0.32010000  0.19290000  1.0 0.3376343301
H  H3  1  0.16050000  0.25720000  0.74730000  1.0 0.3309691318
H  H4  1  0.03380000  0.22220000  0.61260000  1.0 0.3309691318
H  H5  1  0.89520000  0.82380000  0.23480000  1.0 0.3117243578
H  H6  1  0.58140000  0.85270000  0.01330000  1.0 0.3117243578
H  H7  1  0.79150000  0.18320000  0.43470000  1.0 0.3225153987
H  H8  1  0.65830000  0.33700000  0.34070000  1.0 0.3309691318
H  H9  1  0.65470000  0.41470000  0.05880000  1.0 0.3309691318
H  H10  1  0.74450000  0.31620000  0.42210000  1.0 0.3309691318
H  H11  1  0.47160000  0.23020000  0.38500000  1.0 0.3376343301
H  H12  1  0.32940000  0.98860000  0.43580000  1.0 0.2981255059
H  H13  1  0.74200000  0.99650000  0.27590000  1.0 0.090951939
H  H14  1  0.93530000  0.18030000  0.46120000  1.0 0.0807634803
H  H15  1  0.16070000  0.26430000  0.59740000  1.0 0.090951939
H  H16  1  0.67440000  0.06320000  0.22960000  1.0 0.090951939
H  H17  1  0.55010000  0.12850000  0.06720000  1.0 0.090951939
H  H18  1  0.97380000  0.01730000  0.43210000  1.0 0.090951939
H  H19  1  0.84520000  0.04950000  0.43910000  1.0 0.0981677791
H  H20  1  0.21520000  0.15220000  0.65000000  1.0 0.090951939
H  H21  1  0.55600000  0.14590000  0.97470000  1.0 0.0981677791
H  H22  1  0.91030000  0.86710000  0.15520000  1.0 0.090951939
H  H23  1  0.00090000  0.92700000  0.24850000  1.0 0.1050908645
H  H24  1  0.53410000  0.26670000  0.95600000  1.0 0.0981677791
H  H25  1  0.29890000  0.19100000  0.60890000  1.0 0.090951939
H  H26  1  0.59870000  0.18020000  0.23350000  1.0 0.0981677791
H  H27  1  0.29160000  0.27520000  0.45060000  1.0 0.090951939
H  H28  1  0.39600000  0.27070000  0.65010000  1.0 0.0807634803
H  H29  1  0.68780000  0.31800000  0.12540000  1.0 0.090951939
H  H30  1  0.34770000  0.17140000  0.34350000  1.0 0.0807634803
H  H31  1  0.34880000  0.26130000  0.35570000  1.0 0.090951939
H  H32  1  0.09540000  0.02830000  0.49330000  1.0 0.0981677791
H  H33  1  0.92020000  0.03210000  0.27750000  1.0 0.090951939
H  H34  1  0.76060000  0.21610000  0.27670000  1.0 0.090951939
H  H35  1  0.72620000  0.05510000  0.10510000  1.0 0.0807634803
H  H36  1  0.15780000  0.12920000  0.41940000  1.0 0.0807634803
H  H37  1  0.21490000  0.00240000  0.32770000  1.0 0.090951939
H  H38  1  0.27100000  0.10380000  0.39440000  1.0 0.090951939
H  H39  1  0.65690000  0.88770000  0.96940000  1.0 0.0981677791
H  H40  1  0.73500000  0.91440000  0.06840000  1.0 0.0981677791
H  H41  1  0.41910000  0.64080000  0.87150000  1.0 0.3376343301
H  H42  1  0.87280000  0.67990000  0.29350000  1.0 0.3376343301
H  H43  1  0.49010000  0.74280000  0.90330000  1.0 0.3309691318
H  H44  1  0.39040000  0.77780000  0.81160000  1.0 0.3309691318
H  H45  1  0.41100000  0.17620000  0.07140000  1.0 0.3117243578
H  H46  1  0.16060000  0.14730000  0.72870000  1.0 0.3117243578
H  H47  1  0.25150000  0.81680000  0.60830000  1.0 0.3225153987
H  H48  1  0.00370000  0.66300000  0.32130000  1.0 0.3309691318
H  H49  1  0.64410000  0.58530000  0.24000000  1.0 0.3376343301
H  H50  1  0.10590000  0.68380000  0.42830000  1.0 0.3309691318
H  H51  1  0.15480000  0.76980000  0.24140000  1.0 0.3376343301
H  H52  1  0.44720000  0.01140000  0.34080000  1.0 0.2981255059
H  H53  1  0.27940000  0.00350000  0.74550000  1.0 0.090951939
H  H54  1  0.28090000  0.81970000  0.75500000  1.0 0.0807634803
H  H55  1  0.33310000  0.73570000  0.89640000  1.0 0.090951939
H  H56  1  0.16640000  0.93680000  0.61120000  1.0 0.090951939
H  H57  1  0.93870000  0.87150000  0.42160000  1.0 0.090951939
H  H58  1  0.41480000  0.98270000  0.95650000  1.0 0.090951939
H  H59  1  0.38960000  0.95050000  0.79570000  1.0 0.0981677791
H  H60  1  0.49780000  0.84780000  0.06300000  1.0 0.090951939
H  H61  1  0.82880000  0.85410000  0.41010000  1.0 0.0981677791
H  H62  1  0.28810000  0.13290000  0.04320000  1.0 0.090951939
H  H63  1  0.32150000  0.07300000  0.07390000  1.0 0.1050908645
H  H64  1  0.68930000  0.73330000  0.26740000  1.0 0.0981677791
H  H65  1  0.41790000  0.80900000  0.10790000  1.0 0.090951939
H  H66  1  0.05330000  0.81980000  0.41850000  1.0 0.0981677791
H  H67  1  0.17540000  0.72480000  0.01640000  1.0 0.090951939
H  H68  1  0.37940000  0.72930000  0.12530000  1.0 0.0807634803
H  H69  1  0.80740000  0.68200000  0.36980000  1.0 0.090951939
H  H70  1  0.17210000  0.82860000  0.17630000  1.0 0.0807634803
H  H71  1  0.09440000  0.73870000  0.08750000  1.0 0.090951939
H  H72  1  0.46500000  0.97170000  0.06710000  1.0 0.0981677791
H  H73  1  0.24540000  0.96790000  0.88810000  1.0 0.090951939
H  H74  1  0.06060000  0.78390000  0.54450000  1.0 0.090951939
H  H75  1  0.05000000  0.94490000  0.67110000  1.0 0.0807634803
H  H76  1  0.29020000  0.87080000  0.02860000  1.0 0.0807634803
H  H77  1  0.32530000  0.99760000  0.21250000  1.0 0.090951939
H  H78  1  0.29060000  0.89620000  0.16720000  1.0 0.090951939
H  H79  1  0.08170000  0.11230000  0.76920000  1.0 0.0981677791
H  H80  1  0.15400000  0.08560000  0.82060000  1.0 0.0981677791
H  H81  1  0.58090000  0.45240000  0.22170000  1.0 0.3376343301
H  H82  1  0.12720000  0.42070000  0.80710000  1.0 0.3376343301
H  H83  1  0.50990000  0.41320000  0.25270000  1.0 0.3309691318
H  H84  1  0.60960000  0.42120000  0.38740000  1.0 0.3309691318
H  H85  1  0.58900000  0.66040000  0.76520000  1.0 0.3117243578
H  H86  1  0.83940000  0.56810000  0.98670000  1.0 0.3117243578
H  H87  1  0.74850000  0.35680000  0.56530000  1.0 0.3225153987
H  H88  1  0.99630000  0.31760000  0.65930000  1.0 0.3309691318
H  H89  1  0.35590000  0.59590000  0.94120000  1.0 0.3309691318
H  H90  1  0.89410000  0.32240000  0.57790000  1.0 0.3309691318
H  H91  1  0.84520000  0.08660000  0.61500000  1.0 0.3376343301
H  H92  1  0.55280000  0.89360000  0.56420000  1.0 0.2981255059
H  H93  1  0.72060000  0.46610000  0.72410000  1.0 0.090951939
H  H94  1  0.71910000  0.47410000  0.53880000  1.0 0.0807634803
H  H95  1  0.66690000  0.56330000  0.40260000  1.0 0.090951939
H  H96  1  0.83360000  0.44480000  0.77040000  1.0 0.090951939
H  H97  1  0.06130000  0.48290000  0.93280000  1.0 0.090951939
H  H98  1  0.58520000  0.54170000  0.56790000  1.0 0.090951939
H  H99  1  0.61040000  0.40610000  0.56090000  1.0 0.0981677791
H  H100  1  0.50220000  0.56520000  0.35000000  1.0 0.090951939
H  H101  1  0.17120000  0.58130000  0.02530000  1.0 0.0981677791
H  H102  1  0.71190000  0.75510000  0.84480000  1.0 0.090951939
H  H103  1  0.67850000  0.75240000  0.75150000  1.0 0.1050908645
H  H104  1  0.31070000  0.57810000  0.04400000  1.0 0.0981677791
H  H105  1  0.58210000  0.69000000  0.39110000  1.0 0.090951939
H  H106  1  0.94670000  0.36520000  0.76650000  1.0 0.0981677791
H  H107  1  0.82460000  0.84100000  0.54940000  1.0 0.090951939
H  H108  1  0.62060000  0.74590000  0.34990000  1.0 0.0807634803
H  H109  1  0.19260000  0.56240000  0.87460000  1.0 0.090951939
H  H110  1  0.82790000  0.00420000  0.65650000  1.0 0.0807634803
H  H111  1  0.90560000  0.99310000  0.64430000  1.0 0.0981677791
H  H112  1  0.53500000  0.60210000  0.50670000  1.0 0.0981677791
H  H113  1  0.75460000  0.64270000  0.72250000  1.0 0.090951939
H  H114  1  0.93940000  0.48390000  0.72330000  1.0 0.090951939
H  H115  1  0.95000000  0.62110000  0.89490000  1.0 0.0807634803
H  H116  1  0.70980000  0.73840000  0.58060000  1.0 0.0807634803
H  H117  1  0.67470000  0.88720000  0.67230000  1.0 0.090951939
H  H118  1  0.70940000  0.87660000  0.60560000  1.0 0.090951939
H  H119  1  0.91830000  0.68750000  0.03060000  1.0 0.0981677791
H  H120  1  0.84600000  0.66666667  0.93160000  1.0 0.0981677791
H  H121  1  0.76930000  0.54760000  0.12850000  1.0 0.3376343301
H  H122  1  0.38640000  0.57930000  0.70650000  1.0 0.3376343301
H  H123  1  0.83950000  0.58680000  0.09670000  1.0 0.3309691318
H  H124  1  0.96620000  0.57880000  0.18840000  1.0 0.3309691318
H  H125  1  0.10480000  0.33960000  0.92860000  1.0 0.3117243578
H  H126  1  0.41860000  0.43190000  0.27130000  1.0 0.3117243578
H  H127  1  0.20850000  0.64320000  0.39170000  1.0 0.3225153987
H  H128  1  0.34170000  0.68240000  0.67870000  1.0 0.3309691318
H  H129  1  0.34530000  0.40410000  0.76000000  1.0 0.3309691318
H  H130  1  0.25550000  0.67760000  0.57170000  1.0 0.3309691318
H  H131  1  0.52840000  0.91340000  0.75860000  1.0 0.3376343301
H  H132  1  0.67060000  0.10640000  0.65920000  1.0 0.2981255059
H  H133  1  0.25800000  0.53390000  0.25450000  1.0 0.090951939
H  H134  1  0.06470000  0.52590000  0.24500000  1.0 0.0807634803
H  H135  1  0.83930000  0.43670000  0.10360000  1.0 0.090951939
H  H136  1  0.32560000  0.55520000  0.38880000  1.0 0.090951939
H  H137  1  0.44990000  0.51710000  0.57840000  1.0 0.090951939
H  H138  1  0.02620000  0.45830000  0.04350000  1.0 0.090951939
H  H139  1  0.15480000  0.59390000  0.20430000  1.0 0.0981677791
H  H140  1  0.78480000  0.43480000  0.93700000  1.0 0.090951939
H  H141  1  0.44400000  0.41870000  0.58990000  1.0 0.0981677791
H  H142  1  0.08970000  0.24490000  0.95680000  1.0 0.090951939
H  H143  1  0.99910000  0.24760000  0.92610000  1.0 0.1050908645
H  H144  1  0.46590000  0.42190000  0.73260000  1.0 0.0981677791
H  H145  1  0.70110000  0.31000000  0.89210000  1.0 0.090951939
H  H146  1  0.40130000  0.63480000  0.58150000  1.0 0.0981677791
H  H147  1  0.70840000  0.15900000  0.98360000  1.0 0.090951939
H  H148  1  0.60400000  0.25410000  0.87470000  1.0 0.0807634803
H  H149  1  0.31220000  0.43760000  0.63020000  1.0 0.090951939
H  H150  1  0.65230000  0.99580000  0.82370000  1.0 0.0807634803
H  H151  1  0.65120000  0.00690000  0.91250000  1.0 0.090951939
H  H152  1  0.90460000  0.39790000  0.93290000  1.0 0.0981677791
H  H153  1  0.07980000  0.35730000  0.11190000  1.0 0.090951939
H  H154  1  0.23940000  0.51610000  0.45550000  1.0 0.090951939
H  H155  1  0.27380000  0.37890000  0.32890000  1.0 0.0807634803
H  H156  1  0.84220000  0.26160000  0.97140000  1.0 0.0807634803
H  H157  1  0.78510000  0.11280000  0.78750000  1.0 0.090951939
H  H158  1  0.72900000  0.12340000  0.83280000  1.0 0.090951939
H  H159  1  0.34310000  0.31250000  0.23080000  1.0 0.0981677791
H  H160  1  0.26500000  0.33340000  0.17940000  1.0 0.0981677791
C  C1  1  0.79762000  0.02777000  0.30425000  1.0 0.1986699817
C  C2  1  0.93426000  0.13826000  0.47400000  1.0 0.0807634803
C  C3  1  0.20472000  0.24689000  0.63003000  1.0 0.0807634803
C  C4  1  0.71405000  0.08735000  0.22510000  1.0 0.0307241684
C  C5  1  0.60639000  0.12966000  0.10313000  1.0 0.1895000213
C  C6  1  0.97040000  0.05684000  0.41536000  1.0 0.0198152284
C  C7  1  0.84559000  0.09076000  0.42523000  1.0 0.041126343
C  C8  1  0.16940000  0.16908000  0.61872000  1.0 0.0307241684
C  C9  1  0.61456000  0.17767000  0.01629000  1.0 0.0198152284
C  C10  1  0.94679000  0.90557000  0.23122000  1.0 -0.0591042379
C  C11  1  0.59289000  0.29852000  0.00057000  1.0 0.041126343
C  C12  1  0.25400000  0.20584000  0.57376000  1.0 0.0307241684
C  C13  1  0.63750000  0.19873000  0.22377000  1.0 0.0307241684
C  C14  1  0.35098000  0.29206000  0.48212000  1.0 0.0807634803
C  C15  1  0.37061000  0.29763000  0.61858000  1.0 0.1986699817
C  C16  1  0.62901000  0.28575000  0.07906000  1.0 0.0807634803
C  C17  1  0.37126000  0.24066000  0.39400000  1.0 -0.0591042379
C  C18  1  0.11656000  0.07872000  0.50024000  1.0 0.1895000213
C  C19  1  0.91867000  0.99327000  0.29400000  1.0 0.0565856567
C  C20  1  0.71979000  0.19166000  0.27953000  1.0 0.0807634803
C  C21  1  0.68740000  0.02805000  0.10815000  1.0 0.0565856567
C  C22  1  0.20029000  0.11389000  0.45640000  1.0 0.0807634803
C  C23  1  0.24980000  0.06380000  0.39960000  1.0 -0.0749400253
C  C24  1  0.68069000  0.92175000  0.04434000  1.0 -0.0591042379
C  C25  1  0.27648000  0.97223000  0.76985000  1.0 0.1986699817
C  C26  1  0.33574000  0.86174000  0.79600000  1.0 0.0807634803
C  C27  1  0.38314000  0.75311000  0.95783000  1.0 0.0807634803
C  C28  1  0.13775000  0.91265000  0.62670000  1.0 0.0307241684
C  C29  1  0.97347000  0.87034000  0.47673000  1.0 0.1895000213
C  C30  1  0.35852000  0.94316000  0.91356000  1.0 0.0198152284
C  C31  1  0.33447000  0.90924000  0.75483000  1.0 0.041126343
C  C32  1  0.44964000  0.83092000  0.00032000  1.0 0.0307241684
C  C33  1  0.83862000  0.82233000  0.43689000  1.0 0.0198152284
C  C34  1  0.32565000  0.09443000  0.04122000  1.0 -0.0591042379
C  C35  1  0.70205000  0.70148000  0.29437000  1.0 0.041126343
C  C36  1  0.36792000  0.79416000  0.04816000  1.0 0.0307241684
C  C37  1  0.02504000  0.80127000  0.43877000  1.0 0.0307241684
C  C38  1  0.19006000  0.70794000  0.05892000  1.0 0.0807634803
C  C39  1  0.32095000  0.70237000  0.07298000  1.0 0.1986699817
C  C40  1  0.79331000  0.71425000  0.34326000  1.0 0.0807634803
C  C41  1  0.15334000  0.75934000  0.13060000  1.0 -0.0591042379
C  C42  1  0.42152000  0.92128000  0.03784000  1.0 0.1895000213
C  C43  1  0.30073000  0.00673000  0.92540000  1.0 0.0565856567
C  C44  1  0.08787000  0.80834000  0.52813000  1.0 0.0807634803
C  C45  1  0.08010000  0.97195000  0.65935000  1.0 0.0565856567
C  C46  1  0.34251000  0.88611000  0.08640000  1.0 0.0807634803
C  C47  1  0.33580000  0.93620000  0.18600000  1.0 -0.075375169
C  C48  1  0.12259000  0.07825000  0.75894000  1.0 -0.0591042379
C  C49  1  0.72352000  0.49337000  0.69575000  1.0 0.1986699817
C  C50  1  0.66426000  0.46026000  0.52600000  1.0 0.0807634803
C  C51  1  0.61686000  0.57469000  0.36997000  1.0 0.0807634803
C  C52  1  0.86225000  0.48895000  0.77490000  1.0 0.0307241684
C  C53  1  0.02653000  0.50326000  0.89687000  1.0 0.1895000213
C  C54  1  0.64148000  0.55504000  0.58464000  1.0 0.0198152284
C  C55  1  0.66553000  0.42036000  0.57477000  1.0 0.041126343
C  C56  1  0.55036000  0.55068000  0.38128000  1.0 0.0307241684
C  C57  1  0.16138000  0.59827000  0.98371000  1.0 0.0198152284
C  C58  1  0.67435000  0.71557000  0.76878000  1.0 -0.0591042379
C  C59  1  0.29795000  0.59232000  0.99943000  1.0 0.041126343
C  C60  1  0.63208000  0.68024000  0.42624000  1.0 0.0307241684
C  C61  1  0.97496000  0.41373000  0.77623000  1.0 0.0307241684
C  C62  1  0.80994000  0.86886000  0.51788000  1.0 0.0807634803
C  C63  1  0.67905000  0.75203000  0.38142000  1.0 0.1986699817
C  C64  1  0.20669000  0.54995000  0.92094000  1.0 0.0807634803
C  C65  1  0.84666000  0.97726000  0.60600000  1.0 -0.0591042379
C  C66  1  0.57848000  0.61632000  0.49976000  1.0 0.1895000213
C  C67  1  0.69927000  0.62467000  0.70600000  1.0 0.0565856567
C  C68  1  0.91213000  0.44026000  0.72047000  1.0 0.0807634803
C  C69  1  0.91990000  0.57925000  0.89185000  1.0 0.0565856567
C  C70  1  0.65749000  0.74389000  0.54360000  1.0 0.0807634803
C  C71  1  0.66420000  0.85020000  0.60040000  1.0 -0.075375169
C  C72  1  0.87741000  0.63635000  0.95566000  1.0 -0.0591042379
C  C73  1  0.20238000  0.50663000  0.23015000  1.0 0.1986699817
C  C74  1  0.06574000  0.53974000  0.20400000  1.0 0.0807634803
C  C75  1  0.79528000  0.42531000  0.04217000  1.0 0.0807634803
C  C76  1  0.28595000  0.51105000  0.37330000  1.0 0.0307241684
C  C77  1  0.39361000  0.49674000  0.52327000  1.0 0.1895000213
C  C78  1  0.02960000  0.44496000  0.08644000  1.0 0.0198152284
C  C79  1  0.15441000  0.57964000  0.24517000  1.0 0.041126343
C  C80  1  0.83060000  0.44932000  0.99968000  1.0 0.0307241684
C  C81  1  0.38544000  0.40173000  0.56311000  1.0 0.0198152284
C  C82  1  0.05321000  0.28443000  0.95878000  1.0 -0.0591042379
C  C83  1  0.40711000  0.40768000  0.70563000  1.0 0.041126343
C  C84  1  0.74600000  0.31976000  0.95184000  1.0 0.0307241684
C  C85  1  0.36250000  0.58627000  0.56123000  1.0 0.0307241684
C  C86  1  0.64902000  0.13114000  0.94108000  1.0 0.0807634803
C  C87  1  0.62939000  0.24797000  0.92702000  1.0 0.1986699817
C  C88  1  0.37099000  0.45005000  0.65674000  1.0 0.0807634803
C  C89  1  0.62874000  0.02274000  0.86940000  1.0 -0.0591042379
C  C90  1  0.88344000  0.38368000  0.96216000  1.0 0.1895000213
C  C91  1  0.08133000  0.37533000  0.07460000  1.0 0.0547276144
C  C92  1  0.28021000  0.55974000  0.47187000  1.0 0.0807634803
C  C93  1  0.31260000  0.42075000  0.34065000  1.0 0.0565856567
C  C94  1  0.79971000  0.25611000  0.91360000  1.0 0.0807634803
C  C95  1  0.75020000  0.14980000  0.81400000  1.0 -0.0749400253
C  C96  1  0.31931000  0.36365000  0.24106000  1.0 -0.0591042379
O  O1  1  0.79407000  0.08516000  0.28081000  1.0 -0.2896039421
O  O2  1  0.65560000  0.16591000  0.08929000  1.0 -0.2822347279
O  O3  1  0.28650000  0.27696000  0.58166000  1.0 -0.2896039421
O  O4  1  0.60821000  0.03476000  0.05815000  1.0 -0.3013583318
O  O5  1  0.05020000  0.09982000  0.45064000  1.0 -0.2822347279
O  O6  1  0.25955000  0.33079000  0.73950000  1.0 -0.4998570005
O  O7  1  0.38568000  0.25744000  0.53462000  1.0 -0.2896039421
O  O8  1  0.59113000  0.32839000  0.14348000  1.0 -0.5237203087
O  O9  1  0.83536000  0.95557000  0.25579000  1.0 -0.3013583318
O  O10  1  0.12579000  0.20015000  0.67310000  1.0 -0.4785138215
O  O11  1  0.97844000  0.19368000  0.58432000  1.0 -0.4903295036
O  O12  1  0.94880000  0.84666000  0.25328000  1.0 -0.4706433746
O  O13  1  0.63304000  0.87837000  0.05361000  1.0 -0.4706433746
O  O14  1  0.80400000  0.16033000  0.47067000  1.0 -0.5301123778
O  O15  1  0.64123000  0.29382000  0.26605000  1.0 -0.4903295036
O  O16  1  0.60438000  0.39718000  0.05214000  1.0 -0.5301123778
O  O17  1  0.16313000  0.04441000  0.44820000  1.0 -0.2822347279
O  O18  1  0.74091000  0.25021000  0.38866000  1.0 -0.5085185761
O  O19  1  0.45796000  0.26300000  0.44036000  1.0 -0.4369953643
O  O20  1  0.31930000  0.04740000  0.46090000  1.0 -0.4785138215
O  O21  1  0.50650000  0.12450000  0.45560000  1.0 -0.3674008246
O  O22  1  0.47100000  0.10990000  0.49150000  1.0 0.2736874625
O  O23  1  0.48850000  0.12590000  0.57560000  1.0 -0.1114746774
O  O24  1  0.19565000  0.91484000  0.70891000  1.0 -0.2896039421
O  O25  1  0.92338000  0.83409000  0.48969000  1.0 -0.2822347279
O  O26  1  0.30470000  0.72304000  0.00954000  1.0 -0.2896039421
O  O27  1  0.02339000  0.96524000  0.57345000  1.0 -0.3013583318
O  O28  1  0.35082000  0.90018000  0.95038000  1.0 -0.2822347279
O  O29  1  0.40871000  0.66921000  0.92876000  1.0 -0.4998570005
O  O30  1  0.27718000  0.74256000  0.12824000  1.0 -0.2896039421
O  O31  1  0.81509000  0.67161000  0.26274000  1.0 -0.5237203087
O  O32  1  0.30022000  0.04443000  0.87979000  1.0 -0.3013583318
O  O33  1  0.47295000  0.79985000  0.92564000  1.0 -0.4785138215
O  O34  1  0.39064000  0.80632000  0.78476000  1.0 -0.4903295036
O  O35  1  0.40662000  0.15334000  0.10214000  1.0 -0.4706433746
O  O36  1  0.17524000  0.12163000  0.75467000  1.0 -0.4706433746
O  O37  1  0.31034000  0.83967000  0.64367000  1.0 -0.5301123778
O  O38  1  0.97223000  0.70618000  0.34741000  1.0 -0.4903295036
O  O39  1  0.65496000  0.60282000  0.20720000  1.0 -0.5301123778
O  O40  1  0.40379000  0.95559000  0.11872000  1.0 -0.2896039421
O  O41  1  0.13845000  0.74979000  0.49070000  1.0 -0.5085185761
O  O42  1  0.17736000  0.73700000  0.19496000  1.0 -0.4369953643
O  O43  1  0.41350000  0.95260000  0.27190000  1.0 -0.4785138215
O  O44  1  0.33110000  0.87550000  0.38200000  1.0 -0.3674008246
O  O45  1  0.38160000  0.89010000  0.36110000  1.0 0.2736874625
O  O46  1  0.44970000  0.87410000  0.36260000  1.0 -0.1114746774
O  O47  1  0.80435000  0.51326000  0.71919000  1.0 -0.2896039421
O  O48  1  0.07662000  0.56631000  0.91071000  1.0 -0.2822347279
O  O49  1  0.69530000  0.70484000  0.41834000  1.0 -0.2896039421
O  O50  1  0.97661000  0.55006000  0.94185000  1.0 -0.2896039421
O  O51  1  0.64918000  0.59956000  0.54936000  1.0 -0.2822347279
O  O52  1  0.59129000  0.52005000  0.26050000  1.0 -0.4998570005
O  O53  1  0.72282000  0.85106000  0.46538000  1.0 -0.2896039421
O  O54  1  0.18491000  0.44765000  0.85652000  1.0 -0.5237203087
O  O55  1  0.69978000  0.57957000  0.74421000  1.0 -0.3013583318
O  O56  1  0.52705000  0.45269000  0.32690000  1.0 -0.4785138215
O  O57  1  0.60936000  0.39412000  0.41568000  1.0 -0.4903295036
O  O58  1  0.59338000  0.69552000  0.74672000  1.0 -0.4706433746
O  O59  1  0.82476000  0.57943000  0.94639000  1.0 -0.4706433746
O  O60  1  0.68966000  0.33333333  0.52933000  1.0 -0.5301123778
O  O61  1  0.02777000  0.37518000  0.73395000  1.0 -0.4903295036
O  O62  1  0.34504000  0.55224000  0.94786000  1.0 -0.5301123778
O  O63  1  0.59621000  0.71493000  0.55180000  1.0 -0.2822347279
O  O64  1  0.86155000  0.35225000  0.61134000  1.0 -0.5085185761
O  O65  1  0.82264000  0.01760000  0.55964000  1.0 -0.4369953643
O  O66  1  0.58650000  0.85840000  0.53910000  1.0 -0.4785138215
O  O67  1  0.66890000  0.05090000  0.54440000  1.0 -0.3674008246
O  O68  1  0.61840000  0.97950000  0.50850000  1.0 0.2736874625
O  O69  1  0.55030000  0.91290000  0.42440000  1.0 -0.1022566254
O  O70  1  0.20593000  0.48674000  0.29109000  1.0 -0.2896039421
O  O71  1  0.34440000  0.43369000  0.51031000  1.0 -0.2822347279
O  O72  1  0.71350000  0.29516000  0.99046000  1.0 -0.2896039421
O  O73  1  0.39179000  0.44994000  0.42655000  1.0 -0.2896039421
O  O74  1  0.94980000  0.40044000  0.04962000  1.0 -0.2822347279
O  O75  1  0.74045000  0.47995000  0.07124000  1.0 -0.4998570005
O  O76  1  0.61432000  0.14894000  0.87176000  1.0 -0.2896039421
O  O77  1  0.40887000  0.55235000  0.73726000  1.0 -0.5237203087
O  O78  1  0.16464000  0.42043000  0.12021000  1.0 -0.3013583318
O  O79  1  0.87421000  0.54731000  0.07436000  1.0 -0.4785138215
O  O80  1  0.02156000  0.60588000  0.21524000  1.0 -0.4903295036
O  O81  1  0.05120000  0.30448000  0.89786000  1.0 -0.4706433746
O  O82  1  0.36696000  0.42057000  0.24533000  1.0 -0.4706433746
O  O83  1  0.19600000  0.66666667  0.35633000  1.0 -0.5301123778
O  O84  1  0.35877000  0.62482000  0.65259000  1.0 -0.4903295036
O  O85  1  0.39562000  0.44776000  0.79280000  1.0 -0.5301123778
O  O86  1  0.83687000  0.28507000  0.88128000  1.0 -0.2822347279
O  O87  1  0.25909000  0.64775000  0.50930000  1.0 -0.5085185761
O  O88  1  0.54204000  0.98240000  0.80504000  1.0 -0.4369953643
O  O89  1  0.68070000  0.14160000  0.72810000  1.0 -0.4785138215
O  O90  1  0.49350000  0.94910000  0.61800000  1.0 -0.3674008246
O  O91  1  0.52900000  0.02050000  0.63890000  1.0 0.2768149083
O  O92  1  0.51150000  0.08710000  0.63740000  1.0 -0.1022566254
