# DDEC6 charges by PACMAN v1.1 (https://github.com/mtap-research/PACMAN-charge/)
data_ZUGDEM_ASR_pacman
_symmetry_space_group_name_H-M   'P 1'
_cell_length_a   14.20790000
_cell_length_b   17.22950000
_cell_length_c   26.15840000
_cell_angle_alpha   88.76400000
_cell_angle_beta   105.53000000
_cell_angle_gamma   109.62300000
_symmetry_Int_Tables_number   1
_chemical_formula_structural   Zn3H10C23N5O12
_chemical_formula_sum   'Zn12 H40 C92 N20 O48'
_cell_volume   5794.83881399
_cell_formula_units_Z   4
loop_
 _symmetry_equiv_pos_site_id
 _symmetry_equiv_pos_as_xyz
  1  'x, y, z'
loop_
 _atom_site_type_symbol
 _atom_site_label
 _atom_site_symmetry_multiplicity
 _atom_site_fract_x
 _atom_site_fract_y
 _atom_site_fract_z
 _atom_site_occupancy
 _atom_site_charge
Zn  Zn1  1  0.11005000  0.20023000  0.57995000  1.0 0.8790246567
Zn  Zn2  1  0.88995000  0.79977000  0.42005000  1.0 0.8790246567
Zn  Zn3  1  0.17306000  0.38089000  0.52218000  1.0 0.8700201235
Zn  Zn4  1  0.82694000  0.61911000  0.47782000  1.0 0.8700201235
Zn  Zn5  1  0.46896000  0.78157000  0.29135000  1.0 0.851936253
Zn  Zn6  1  0.53104000  0.21843000  0.70865000  1.0 0.851936253
Zn  Zn7  1  0.66620000  0.88388000  0.99117000  1.0 0.851936253
Zn  Zn8  1  0.33380000  0.11612000  0.00883000  1.0 0.851936253
Zn  Zn9  1  0.85584000  0.72113000  0.80149000  1.0 0.8358277104
Zn  Zn10  1  0.14416000  0.27887000  0.19851000  1.0 0.8358277104
Zn  Zn11  1  0.57025000  0.68619000  0.92865000  1.0 0.8700201235
Zn  Zn12  1  0.42975000  0.31381000  0.07135000  1.0 0.8700201235
H  H1  1  0.29900000  0.15750000  0.64370000  1.0 0.1207586816
H  H2  1  0.70100000  0.84250000  0.35630000  1.0 0.1207586816
H  H3  1  0.37290000  0.50900000  0.57350000  1.0 0.1207586816
H  H4  1  0.62710000  0.49100000  0.42650000  1.0 0.1207586816
H  H5  1  0.12260000  0.26200000  0.36960000  1.0 0.1455032399
H  H6  1  0.87740000  0.73800000  0.63040000  1.0 0.1455032399
H  H7  1  0.98490000  0.04030000  0.28850000  1.0 0.130822385
H  H8  1  0.01510000  0.95970000  0.71150000  1.0 0.130822385
H  H9  1  0.00190000  0.06070000  0.44210000  1.0 0.1390327236
H  H10  1  0.99810000  0.93930000  0.55790000  1.0 0.1390327236
H  H11  1  0.29870000  0.60980000  0.38640000  1.0 0.1207586816
H  H12  1  0.70130000  0.39020000  0.61360000  1.0 0.1207586816
H  H13  1  0.11920000  0.75110000  0.35920000  1.0 0.1390327236
H  H14  1  0.88080000  0.24890000  0.64080000  1.0 0.1390327236
H  H15  1  0.06930000  0.56510000  0.45530000  1.0 0.1390327236
H  H16  1  0.93070000  0.43490000  0.54470000  1.0 0.1390327236
H  H17  1  0.59620000  0.78750000  0.13710000  1.0 0.1390327236
H  H18  1  0.40380000  0.21250000  0.86290000  1.0 0.1390327236
H  H19  1  0.55800000  0.58210000  0.05540000  1.0 0.1390327236
H  H20  1  0.44200000  0.41790000  0.94460000  1.0 0.1390327236
H  H21  1  0.47900000  0.56700000  0.19220000  1.0 0.130822385
H  H22  1  0.52100000  0.43300000  0.80780000  1.0 0.130822385
H  H23  1  0.11770000  0.86270000  0.89860000  1.0 0.1122172794
H  H24  1  0.88230000  0.13730000  0.10140000  1.0 0.1122172794
H  H25  1  0.42600000  0.91480000  0.95500000  1.0 0.1390327236
H  H26  1  0.57400000  0.08520000  0.04500000  1.0 0.1390327236
H  H27  1  0.25190000  0.70060000  0.86680000  1.0 0.1390327236
H  H28  1  0.74810000  0.29940000  0.13320000  1.0 0.1390327236
H  H29  1  0.66600000  0.67390000  0.84000000  1.0 0.1207586816
H  H30  1  0.33400000  0.32610000  0.16000000  1.0 0.1207586816
H  H31  1  0.86800000  0.98850000  0.98680000  1.0 0.1207586816
H  H32  1  0.13200000  0.01150000  0.01320000  1.0 0.1207586816
H  H33  1  0.03130000  0.97920000  0.87050000  1.0 0.3267225346
H  H34  1  0.96870000  0.02080000  0.12950000  1.0 0.3200212312
H  H35  1  0.97210000  0.89960000  0.83750000  1.0 0.3200212312
H  H36  1  0.02790000  0.10040000  0.16250000  1.0 0.3200212312
H  H37  1  0.64230000  0.48500000  0.68090000  1.0 0.3383500299
H  H38  1  0.35770000  0.51500000  0.31910000  1.0 0.3383500299
H  H39  1  0.62100000  0.39700000  0.69340000  1.0 0.3200212312
H  H40  1  0.37900000  0.60300000  0.30660000  1.0 0.3200212312
C  C1  1  0.32640000  0.32900000  0.60470000  1.0 0.3200212312
C  C2  1  0.67360000  0.67100000  0.39530000  1.0 0.3200212312
C  C3  1  0.32380000  0.21280000  0.63680000  1.0 0.2073630115
C  C4  1  0.67620000  0.78720000  0.36320000  1.0 0.2073630115
C  C5  1  0.42550000  0.33880000  0.63670000  1.0 -0.0563521774
C  C6  1  0.57450000  0.66120000  0.36330000  1.0 -0.0563521774
C  C7  1  0.50240000  0.41560000  0.64670000  1.0 0.3861712536
C  C8  1  0.49760000  0.58440000  0.35330000  1.0 0.3861712536
C  C9  1  0.38410000  0.46400000  0.59100000  1.0 0.2644244751
C  C10  1  0.61590000  0.53600000  0.40900000  1.0 0.2644244751
C  C11  1  0.05750000  0.17060000  0.41180000  1.0 -0.0355523915
C  C12  1  0.94250000  0.82940000  0.58820000  1.0 -0.0283635195
C  C13  1  0.08420000  0.20600000  0.36770000  1.0 -0.0707401845
C  C14  1  0.91580000  0.79400000  0.63230000  1.0 -0.0707401845
C  C15  1  0.05410000  0.15840000  0.32100000  1.0 -0.0283635195
C  C16  1  0.94590000  0.84160000  0.67900000  1.0 -0.0283635195
C  C17  1  0.00560000  0.07290000  0.32020000  1.0 -0.0886741682
C  C18  1  0.99440000  0.92710000  0.67980000  1.0 -0.0886741682
C  C19  1  0.98820000  0.03620000  0.36580000  1.0 -0.0209781444
C  C20  1  0.01180000  0.96380000  0.63420000  1.0 -0.0209781444
C  C21  1  0.01370000  0.08480000  0.41120000  1.0 -0.0836624244
C  C22  1  0.98630000  0.91520000  0.58880000  1.0 -0.0836624244
C  C23  1  0.08690000  0.22020000  0.46280000  1.0 0.5988729676
C  C24  1  0.91310000  0.77980000  0.53720000  1.0 0.5988729676
C  C25  1  0.08290000  0.19050000  0.27250000  1.0 0.5428237638
C  C26  1  0.91710000  0.80950000  0.72750000  1.0 0.5428237638
C  C27  1  0.93750000  0.94430000  0.36530000  1.0 0.5599152083
C  C28  1  0.06250000  0.05570000  0.63470000  1.0 0.5599152083
C  C29  1  0.18990000  0.57930000  0.42690000  1.0 -0.0122276059
C  C30  1  0.81010000  0.42070000  0.57310000  1.0 -0.0122276059
C  C31  1  0.24500000  0.62400000  0.39270000  1.0 -0.0955877954
C  C32  1  0.75500000  0.37600000  0.60730000  1.0 -0.0886741682
C  C33  1  0.22020000  0.69000000  0.36810000  1.0 -0.0283635195
C  C34  1  0.77980000  0.31000000  0.63190000  1.0 -0.0209781444
C  C35  1  0.13790000  0.70830000  0.37600000  1.0 -0.0886741682
C  C36  1  0.86210000  0.29170000  0.62400000  1.0 -0.0886741682
C  C37  1  0.08340000  0.66230000  0.40930000  1.0 -0.0209781444
C  C38  1  0.91660000  0.33770000  0.59070000  1.0 -0.0209781444
C  C39  1  0.10850000  0.59670000  0.43400000  1.0 -0.0886741682
C  C40  1  0.89150000  0.40330000  0.56600000  1.0 -0.0886741682
C  C41  1  0.21410000  0.50720000  0.45480000  1.0 0.5700454733
C  C42  1  0.78590000  0.49280000  0.54520000  1.0 0.5700454733
C  C43  1  0.27920000  0.73840000  0.33110000  1.0 0.5700454733
C  C44  1  0.72080000  0.26160000  0.66890000  1.0 0.5700454733
C  C45  1  0.99520000  0.68390000  0.41900000  1.0 0.6061814746
C  C46  1  0.00480000  0.31610000  0.58100000  1.0 0.5988729676
C  C47  1  0.52740000  0.68350000  0.17030000  1.0 -0.0209781444
C  C48  1  0.47260000  0.31650000  0.82970000  1.0 -0.0209781444
C  C49  1  0.57160000  0.73010000  0.13250000  1.0 -0.0707401845
C  C50  1  0.42840000  0.26990000  0.86750000  1.0 -0.0707401845
C  C51  1  0.57860000  0.69220000  0.08940000  1.0 -0.0209781444
C  C52  1  0.42140000  0.30780000  0.91060000  1.0 -0.0209781444
C  C53  1  0.55310000  0.60770000  0.08510000  1.0 -0.0836624244
C  C54  1  0.44690000  0.39230000  0.91490000  1.0 -0.0836624244
C  C55  1  0.51950000  0.55950000  0.12590000  1.0 -0.0122276059
C  C56  1  0.48050000  0.44050000  0.87410000  1.0 -0.0122276059
C  C57  1  0.50480000  0.59830000  0.16640000  1.0 -0.0886741682
C  C58  1  0.49520000  0.40170000  0.83360000  1.0 -0.0886741682
C  C59  1  0.51130000  0.72440000  0.21410000  1.0 0.5428237638
C  C60  1  0.48870000  0.27560000  0.78590000  1.0 0.5428237638
C  C61  1  0.61560000  0.73980000  0.04530000  1.0 0.5988729676
C  C62  1  0.38440000  0.26020000  0.95470000  1.0 0.5988729676
C  C63  1  0.48960000  0.46620000  0.12010000  1.0 0.5599152083
C  C64  1  0.51040000  0.53380000  0.87990000  1.0 0.5599152083
C  C65  1  0.16530000  0.76830000  0.87760000  1.0 -0.0707401845
C  C66  1  0.83470000  0.23170000  0.12240000  1.0 -0.0707401845
C  C67  1  0.17540000  0.84690000  0.90200000  1.0 -0.0886741682
C  C68  1  0.82460000  0.15310000  0.09800000  1.0 -0.0886741682
C  C69  1  0.27830000  0.89970000  0.93180000  1.0 -0.0209781444
C  C70  1  0.72170000  0.10030000  0.06820000  1.0 -0.0209781444
C  C71  1  0.36090000  0.87890000  0.93610000  1.0 -0.0836624244
C  C72  1  0.63910000  0.12110000  0.06390000  1.0 -0.0886741682
C  C73  1  0.35250000  0.80300000  0.91250000  1.0 -0.0122276059
C  C74  1  0.64750000  0.19700000  0.08750000  1.0 -0.0122276059
C  C75  1  0.25620000  0.74960000  0.88310000  1.0 -0.0707401845
C  C76  1  0.74380000  0.25040000  0.11690000  1.0 -0.0707401845
C  C77  1  0.06510000  0.71720000  0.84660000  1.0 0.5599152083
C  C78  1  0.93490000  0.28280000  0.15340000  1.0 0.5546481928
C  C79  1  0.28330000  0.97840000  0.95670000  1.0 0.5599152083
C  C80  1  0.71670000  0.02160000  0.04330000  1.0 0.5599152083
C  C81  1  0.82720000  0.84090000  0.88320000  1.0 -0.0486355999
C  C82  1  0.17280000  0.15910000  0.11680000  1.0 -0.0486355999
C  C83  1  0.44920000  0.78230000  0.91970000  1.0 0.5842389187
C  C84  1  0.55080000  0.21770000  0.08030000  1.0 0.5842389187
C  C85  1  0.70770000  0.72430000  0.85880000  1.0 0.1969889647
C  C86  1  0.29230000  0.27570000  0.14120000  1.0 0.1969889647
C  C87  1  0.76130000  0.82900000  0.91400000  1.0 0.3001529893
C  C88  1  0.23870000  0.17100000  0.08600000  1.0 0.3001529893
C  C89  1  0.85570000  0.95040000  0.95900000  1.0 0.2380900404
C  C90  1  0.14430000  0.04960000  0.04100000  1.0 0.2380900404
C  C91  1  0.91010000  0.91460000  0.89240000  1.0 0.3833250722
C  C92  1  0.08990000  0.08540000  0.10760000  1.0 0.3833250722
N  N1  1  0.92620000  0.97040000  0.93240000  1.0 -0.3815415481
N  N2  1  0.07380000  0.02960000  0.06760000  1.0 -0.3815415481
N  N3  1  0.97960000  0.93340000  0.86320000  1.0 -0.4901733824
N  N4  1  0.02040000  0.06660000  0.13680000  1.0 -0.4901733824
N  N5  1  0.79390000  0.77160000  0.84732000  1.0 -0.3299903253
N  N6  1  0.20610000  0.22840000  0.15268000  1.0 -0.3299903253
N  N7  1  0.68460000  0.75330000  0.89850000  1.0 -0.3737279751
N  N8  1  0.31540000  0.24670000  0.10150000  1.0 -0.3737279751
N  N9  1  0.76960000  0.88460000  0.95260000  1.0 -0.3737279751
N  N10  1  0.23040000  0.11540000  0.04740000  1.0 -0.3737279751
N  N11  1  0.30130000  0.39280000  0.57940000  1.0 -0.4139316657
N  N12  1  0.69870000  0.60720000  0.42060000  1.0 -0.4139316657
N  N13  1  0.26210000  0.25140000  0.60490000  1.0 -0.3990813473
N  N14  1  0.73790000  0.74860000  0.39510000  1.0 -0.3990813473
N  N15  1  0.42180000  0.26100000  0.65690000  1.0 -0.3061356672
N  N16  1  0.57820000  0.73900000  0.34310000  1.0 -0.3061356672
N  N17  1  0.60020000  0.43480000  0.67730000  1.0 -0.4771849194
N  N18  1  0.39980000  0.56520000  0.32270000  1.0 -0.4771849194
N  N19  1  0.47570000  0.47910000  0.62260000  1.0 -0.3486836532
N  N20  1  0.52430000  0.52090000  0.37740000  1.0 -0.3486836532
O  O1  1  0.05950000  0.18610000  0.50161000  1.0 -0.5187655716
O  O2  1  0.94050000  0.81390000  0.49839000  1.0 -0.5187655716
O  O3  1  0.13820000  0.29840000  0.46389000  1.0 -0.5340709963
O  O4  1  0.86180000  0.70160000  0.53611000  1.0 -0.5340709963
O  O5  1  0.13110000  0.26970000  0.27250000  1.0 -0.505357621
O  O6  1  0.86890000  0.73030000  0.72750000  1.0 -0.505357621
O  O7  1  0.06130000  0.15070000  0.23240000  1.0 -0.4434651115
O  O8  1  0.93870000  0.84930000  0.76760000  1.0 -0.4434651115
O  O9  1  0.89020000  0.89720000  0.32450000  1.0 -0.4718447605
O  O10  1  0.10980000  0.10280000  0.67550000  1.0 -0.4718447605
O  O11  1  0.94270000  0.91600000  0.41154000  1.0 -0.5187655716
O  O12  1  0.05730000  0.08400000  0.58846000  1.0 -0.5187655716
O  O13  1  0.27310000  0.47640000  0.44060000  1.0 -0.5397187674
O  O14  1  0.72690000  0.52360000  0.55940000  1.0 -0.5397187674
O  O15  1  0.17550000  0.48550000  0.49235000  1.0 -0.5187655716
O  O16  1  0.82450000  0.51450000  0.50765000  1.0 -0.5187655716
O  O17  1  0.94430000  0.63870000  0.44853000  1.0 -0.5589834729
O  O18  1  0.05570000  0.36130000  0.55147000  1.0 -0.5589834729
O  O19  1  0.97440000  0.74700000  0.39792000  1.0 -0.5397187674
O  O20  1  0.02560000  0.25300000  0.60208000  1.0 -0.5397187674
O  O21  1  0.24980000  0.79170000  0.30620000  1.0 -0.4471437016
O  O22  1  0.75020000  0.20830000  0.69380000  1.0 -0.4434651115
O  O23  1  0.35830000  0.72330000  0.32835000  1.0 -0.5397187674
O  O24  1  0.64170000  0.27670000  0.67165000  1.0 -0.5397187674
O  O25  1  0.49020000  0.42850000  0.16380000  1.0 -0.5710800269
O  O26  1  0.50980000  0.57150000  0.83620000  1.0 -0.5710800269
O  O27  1  0.46900000  0.43280000  0.07600000  1.0 -0.4901733824
O  O28  1  0.53100000  0.56720000  0.92400000  1.0 -0.4901733824
O  O29  1  0.43460000  0.68230000  0.23290000  1.0 -0.5397187674
O  O30  1  0.56540000  0.31770000  0.76710000  1.0 -0.5397187674
O  O31  1  0.55930000  0.79890000  0.22982000  1.0 -0.5187655716
O  O32  1  0.44070000  0.20110000  0.77018000  1.0 -0.5187655716
O  O33  1  0.62200000  0.70000000  0.00639000  1.0 -0.5512548068
O  O34  1  0.37800000  0.30000000  0.99361000  1.0 -0.5512548068
O  O35  1  0.63460000  0.81510000  0.04970000  1.0 -0.4901733824
O  O36  1  0.36540000  0.18490000  0.95030000  1.0 -0.4901733824
O  O37  1  0.05950000  0.66230000  0.81300000  1.0 -0.4771849194
O  O38  1  0.94050000  0.33770000  0.18700000  1.0 -0.4771849194
O  O39  1  0.98640000  0.72920000  0.85350000  1.0 -0.5512548068
O  O40  1  0.01360000  0.27080000  0.14650000  1.0 -0.5512548068
O  O41  1  0.21310000  0.00860000  0.94260000  1.0 -0.5512548068
O  O42  1  0.78690000  0.99140000  0.05740000  1.0 -0.5512548068
O  O43  1  0.36420000  0.01450000  0.99410000  1.0 -0.4901733824
O  O44  1  0.63580000  0.98550000  0.00590000  1.0 -0.4901733824
O  O45  1  0.53360000  0.83630000  0.93160000  1.0 -0.5187655716
O  O46  1  0.46640000  0.16370000  0.06840000  1.0 -0.5187655716
O  O47  1  0.43560000  0.70410000  0.91160000  1.0 -0.5187655716
O  O48  1  0.56440000  0.29590000  0.08840000  1.0 -0.5187655716
