# DDEC6 charges by PACMAN v1.1 (https://github.com/mtap-research/PACMAN-charge/)
data_ZUGDIR_FSR_pacman
_symmetry_space_group_name_H-M   'P 1'
_cell_length_a   18.48460000
_cell_length_b   18.48460000
_cell_length_c   18.48460000
_cell_angle_alpha   99.81400000
_cell_angle_beta   99.81400000
_cell_angle_gamma   131.23100000
_symmetry_Int_Tables_number   1
_chemical_formula_structural   KH29(C6O5)4
_chemical_formula_sum   'K4 H116 C96 O80'
_cell_volume   4326.16768296
_cell_formula_units_Z   4
loop_
 _symmetry_equiv_pos_site_id
 _symmetry_equiv_pos_as_xyz
  1  'x, y, z'
loop_
 _atom_site_type_symbol
 _atom_site_label
 _atom_site_symmetry_multiplicity
 _atom_site_fract_x
 _atom_site_fract_y
 _atom_site_fract_z
 _atom_site_occupancy
 _atom_site_charge
K  K1  1  0.73500000  0.23630000  0.89328000  1.0 0.8419428309
K  K2  1  0.34302000  0.84172000  0.10672000  1.0 0.8419428309
K  K3  1  0.84172000  0.73500000  0.49870000  1.0 0.8419428309
K  K4  1  0.23630000  0.34302000  0.50130000  1.0 0.8419428309
H  H1  1  0.38400000  0.98500000  0.00900000  1.0 0.3377285441
H  H2  1  0.60497000  0.53384000  0.44707000  1.0 0.0906882978
H  H3  1  0.57204000  0.14490000  0.04474000  1.0 0.1088292804
H  H4  1  0.44684000  0.28687000  0.28379000  1.0 0.1200793533
H  H5  1  0.57064000  0.29929000  0.09153000  1.0 0.1088292804
H  H6  1  0.72588000  0.41574000  0.07536000  1.0 0.1396419168
H  H7  1  0.63757000  0.32399000  0.99358000  1.0 0.1200793533
H  H8  1  0.66364000  0.29249000  0.26651000  1.0 0.1200793533
H  H9  1  0.58870000  0.39768000  0.44360000  1.0 0.1200793533
H  H10  1  0.57496000  0.12964000  0.17526000  1.0 0.1200793533
H  H11  1  0.65388000  0.37958000  0.33584000  1.0 0.1200793533
H  H12  1  0.42306000  0.12086000  0.09296000  1.0 0.1200793533
H  H13  1  0.57916000  0.44840000  0.25264000  1.0 0.1088292804
H  H14  1  0.75645000  0.59179000  0.27482000  1.0 0.1396419168
H  H15  1  0.71235000  0.48664000  0.21773000  1.0 0.1200793533
H  H16  1  0.55004000  0.66328000  0.58040000  1.0 0.1200793533
H  H17  1  0.69080000  0.89768000  0.81128000  1.0 0.1088292804
H  H18  1  0.74244000  0.76676000  0.69660000  1.0 0.1088292804
H  H19  1  0.51545000  0.50912000  0.52785000  1.0 0.0997643141
H  H20  1  0.66964000  0.54948000  0.56092000  1.0 0.1088292804
H  H21  1  0.49777000  0.74243000  0.79090000  1.0 0.1200793533
H  H22  1  0.54010000  0.76500000  0.60738000  1.0 0.1396419168
H  H23  1  0.55869000  0.92916000  0.78631000  1.0 0.1088292804
H  H24  1  0.43519000  0.77165000  0.65564000  1.0 0.1200793533
H  H25  1  0.80994000  0.86494000  0.61148000  1.0 0.1282860208
H  H26  1  0.76142000  0.88937000  0.65939000  1.0 0.1282860208
H  H27  1  0.56553000  0.58351000  0.69404000  1.0 0.1200793533
H  H28  1  0.81596000  0.06210000  0.80334000  1.0 0.1396419168
H  H29  1  0.79097000  0.07280000  0.87913000  1.0 0.1200793533
H  H30  1  0.97600000  0.37500000  0.99100000  1.0 0.3377285441
H  H31  1  0.08677000  0.15790000  0.55293000  1.0 0.0906882978
H  H32  1  0.10016000  0.52730000  0.95526000  1.0 0.1088292804
H  H33  1  0.00308000  0.16305000  0.71621000  1.0 0.1200793533
H  H34  1  0.20776000  0.47911000  0.90847000  1.0 0.1088292804
H  H35  1  0.34038000  0.65052000  0.92464000  1.0 0.1396419168
H  H36  1  0.33041000  0.64399000  0.00642000  1.0 0.1200793533
H  H37  1  0.02598000  0.39713000  0.73349000  1.0 0.1200793533
H  H38  1  0.95408000  0.14510000  0.55640000  1.0 0.1200793533
H  H39  1  0.95438000  0.39970000  0.82474000  1.0 0.1200793533
H  H40  1  0.04374000  0.31804000  0.66416000  1.0 0.1200793533
H  H41  1  0.02790000  0.33010000  0.90704000  1.0 0.1200793533
H  H42  1  0.19576000  0.32652000  0.74736000  1.0 0.1088292804
H  H43  1  0.31697000  0.48163000  0.72518000  1.0 0.1396419168
H  H44  1  0.26891000  0.49462000  0.78227000  1.0 0.1200793533
H  H45  1  0.08288000  0.96964000  0.41960000  1.0 0.1200793533
H  H46  1  0.08640000  0.87952000  0.18872000  1.0 0.1088292804
H  H47  1  0.07016000  0.04584000  0.30340000  1.0 0.1088292804
H  H48  1  0.98127000  0.98760000  0.47215000  1.0 0.0997643141
H  H49  1  0.98856000  0.10872000  0.43908000  1.0 0.1088292804
H  H50  1  0.95153000  0.70687000  0.20910000  1.0 0.1200793533
H  H51  1  0.15762000  0.93272000  0.39262000  1.0 0.1396419168
H  H52  1  0.14285000  0.77238000  0.21369000  1.0 0.1088292804
H  H53  1  0.11601000  0.77955000  0.34436000  1.0 0.1200793533
H  H54  1  0.25346000  0.19846000  0.38852000  1.0 0.1282860208
H  H55  1  0.22998000  0.10203000  0.34061000  1.0 0.1282860208
H  H56  1  0.88947000  0.87149000  0.30596000  1.0 0.1200793533
H  H57  1  0.25876000  0.01262000  0.19666000  1.0 0.1396419168
H  H58  1  0.19367000  0.91184000  0.12087000  1.0 0.1200793533
H  H59  1  0.37500000  0.38400000  0.39900000  1.0 0.3377285441
H  H60  1  0.15790000  0.60497000  0.07113000  1.0 0.0906882978
H  H61  1  0.52730000  0.57204000  0.42714000  1.0 0.1088292804
H  H62  1  0.16305000  0.44684000  0.15997000  1.0 0.1200793533
H  H63  1  0.47911000  0.57064000  0.27135000  1.0 0.1088292804
H  H64  1  0.65052000  0.72588000  0.31014000  1.0 0.1396419168
H  H65  1  0.64399000  0.63757000  0.31358000  1.0 0.1200793533
H  H66  1  0.39713000  0.66364000  0.37115000  1.0 0.1200793533
H  H67  1  0.14510000  0.58870000  0.19102000  1.0 0.1200793533
H  H68  1  0.39970000  0.57496000  0.44532000  1.0 0.1200793533
H  H69  1  0.31804000  0.65388000  0.27430000  1.0 0.1200793533
H  H70  1  0.33010000  0.42306000  0.30220000  1.0 0.1200793533
H  H71  1  0.32652000  0.57916000  0.13076000  1.0 0.1088292804
H  H72  1  0.48163000  0.75645000  0.16466000  1.0 0.1396419168
H  H73  1  0.49462000  0.71235000  0.22571000  1.0 0.1200793533
H  H74  1  0.96964000  0.55004000  0.88676000  1.0 0.1200793533
H  H75  1  0.87952000  0.69080000  0.79312000  1.0 0.1088292804
H  H76  1  0.04584000  0.74244000  0.97568000  1.0 0.1088292804
H  H77  1  0.98760000  0.51545000  0.00633000  1.0 0.0997643141
H  H78  1  0.10872000  0.66964000  0.12016000  1.0 0.1088292804
H  H79  1  0.70687000  0.49777000  0.75534000  1.0 0.1200793533
H  H80  1  0.93272000  0.54010000  0.77510000  1.0 0.1396419168
H  H81  1  0.77238000  0.55869000  0.62953000  1.0 0.1088292804
H  H82  1  0.77955000  0.43519000  0.66354000  1.0 0.1200793533
H  H83  1  0.19846000  0.80994000  0.94500000  1.0 0.1282860208
H  H84  1  0.10203000  0.76142000  0.87205000  1.0 0.1282860208
H  H85  1  0.87149000  0.56553000  0.98202000  1.0 0.1200793533
H  H86  1  0.01262000  0.81596000  0.75386000  1.0 0.1396419168
H  H87  1  0.91184000  0.79097000  0.71817000  1.0 0.1200793533
H  H88  1  0.98500000  0.97600000  0.60100000  1.0 0.3377285441
H  H89  1  0.53384000  0.08677000  0.92887000  1.0 0.0906882978
H  H90  1  0.14490000  0.10016000  0.57286000  1.0 0.1088292804
H  H91  1  0.28687000  0.00308000  0.84003000  1.0 0.1200793533
H  H92  1  0.29929000  0.20776000  0.72865000  1.0 0.1088292804
H  H93  1  0.41574000  0.34038000  0.68986000  1.0 0.1396419168
H  H94  1  0.32399000  0.33041000  0.68642000  1.0 0.1200793533
H  H95  1  0.29249000  0.02598000  0.62885000  1.0 0.1200793533
H  H96  1  0.39768000  0.95408000  0.80898000  1.0 0.1200793533
H  H97  1  0.12964000  0.95438000  0.55468000  1.0 0.1200793533
H  H98  1  0.37958000  0.04374000  0.72570000  1.0 0.1200793533
H  H99  1  0.12086000  0.02790000  0.69780000  1.0 0.1200793533
H  H100  1  0.44840000  0.19576000  0.86924000  1.0 0.1088292804
H  H101  1  0.59179000  0.31697000  0.83534000  1.0 0.1396419168
H  H102  1  0.48664000  0.26891000  0.77429000  1.0 0.1200793533
H  H103  1  0.66328000  0.08288000  0.11324000  1.0 0.1200793533
H  H104  1  0.89768000  0.08640000  0.20688000  1.0 0.1088292804
H  H105  1  0.76676000  0.07016000  0.02432000  1.0 0.1088292804
H  H106  1  0.50912000  0.98127000  0.99367000  1.0 0.0997643141
H  H107  1  0.54948000  0.98856000  0.87984000  1.0 0.1088292804
H  H108  1  0.74243000  0.95153000  0.24466000  1.0 0.1200793533
H  H109  1  0.76500000  0.15762000  0.22490000  1.0 0.1396419168
H  H110  1  0.92916000  0.14285000  0.37047000  1.0 0.1088292804
H  H111  1  0.77165000  0.11601000  0.33646000  1.0 0.1200793533
H  H112  1  0.86494000  0.25346000  0.05500000  1.0 0.1282860208
H  H113  1  0.88937000  0.22998000  0.12795000  1.0 0.1282860208
H  H114  1  0.58351000  0.88947000  0.01798000  1.0 0.1200793533
H  H115  1  0.06210000  0.25876000  0.24614000  1.0 0.1396419168
H  H116  1  0.07280000  0.19367000  0.28183000  1.0 0.1200793533
C  C1  1  0.57950000  0.48500000  0.39470000  1.0 0.2163075572
C  C2  1  0.53230000  0.16220000  0.04750000  1.0 0.0161929707
C  C3  1  0.50630000  0.30920000  0.32470000  1.0 0.0906882978
C  C4  1  0.61020000  0.28200000  0.08760000  1.0 0.0997643141
C  C5  1  0.67960000  0.34180000  0.04580000  1.0 -0.0511950562
C  C6  1  0.61510000  0.26680000  0.21390000  1.0 0.2498753359
C  C7  1  0.53460000  0.38220000  0.40200000  1.0 0.0489189767
C  C8  1  0.53600000  0.14780000  0.17760000  1.0 0.0314838572
C  C9  1  0.59670000  0.36400000  0.29830000  1.0 0.0489189767
C  C10  1  0.46510000  0.10610000  0.09180000  1.0 0.0997643141
C  C11  1  0.63520000  0.46490000  0.29270000  1.0 0.1088292804
C  C12  1  0.73020000  0.52500000  0.27160000  1.0 -0.0754319029
C  C13  1  0.58860000  0.67710000  0.63310000  1.0 0.0489189767
C  C14  1  0.67020000  0.92920000  0.78980000  1.0 0.0997643141
C  C15  1  0.69990000  0.74140000  0.64130000  1.0 0.0997643141
C  C16  1  0.54650000  0.51690000  0.58080000  1.0 0.0314838572
C  C17  1  0.66250000  0.58610000  0.59920000  1.0 0.2163075572
C  C18  1  0.48250000  0.77710000  0.76800000  1.0 0.0906882978
C  C19  1  0.55580000  0.78310000  0.66450000  1.0 0.2428001007
C  C20  1  0.57710000  0.89550000  0.80660000  1.0 0.0557154556
C  C21  1  0.45790000  0.74260000  0.67870000  1.0 0.0314838572
C  C22  1  0.74550000  0.83600000  0.61730000  1.0 -0.0430831686
C  C23  1  0.53310000  0.57230000  0.64000000  1.0 0.1088292804
C  C24  1  0.76240000  0.04590000  0.82150000  1.0 -0.0430831686
C  C25  1  0.09030000  0.18480000  0.60530000  1.0 0.2163075572
C  C26  1  0.11470000  0.48480000  0.95250000  1.0 0.0161929707
C  C27  1  0.98450000  0.18160000  0.67530000  1.0 0.0906882978
C  C28  1  0.19440000  0.52260000  0.91240000  1.0 0.0997643141
C  C29  1  0.29600000  0.63380000  0.95420000  1.0 -0.0511950562
C  C30  1  0.05290000  0.40120000  0.78610000  1.0 0.2498753359
C  C31  1  0.98020000  0.13260000  0.59800000  1.0 0.0489189767
C  C32  1  0.97020000  0.35840000  0.82240000  1.0 0.0314838572
C  C33  1  0.06570000  0.29840000  0.70170000  1.0 0.0489189767
C  C34  1  0.01430000  0.37330000  0.90820000  1.0 0.0997643141
C  C35  1  0.17220000  0.34250000  0.70730000  1.0 0.1088292804
C  C36  1  0.25340000  0.45860000  0.72840000  1.0 -0.0754319029
C  C37  1  0.04400000  0.95550000  0.36690000  1.0 0.0489189767
C  C38  1  0.13940000  0.88040000  0.21020000  1.0 0.0997643141
C  C39  1  0.10010000  0.05860000  0.35870000  1.0 0.0997643141
C  C40  1  0.93610000  0.96570000  0.41920000  1.0 0.0314838572
C  C41  1  0.98690000  0.06330000  0.40080000  1.0 0.2163075572
C  C42  1  0.00910000  0.71450000  0.23200000  1.0 0.0906882978
C  C43  1  0.11860000  0.89130000  0.33550000  1.0 0.2428001007
C  C44  1  0.08890000  0.77050000  0.19340000  1.0 0.0557154556
C  C45  1  0.06390000  0.77920000  0.32130000  1.0 0.0314838572
C  C46  1  0.21870000  0.12820000  0.38270000  1.0 -0.0430831686
C  C47  1  0.93230000  0.89310000  0.36000000  1.0 0.1088292804
C  C48  1  0.22440000  0.94090000  0.17850000  1.0 -0.0430831686
C  C49  1  0.18480000  0.57950000  0.09450000  1.0 0.2163075572
C  C50  1  0.48480000  0.53230000  0.37010000  1.0 0.0161929707
C  C51  1  0.18160000  0.50630000  0.19710000  1.0 0.0906882978
C  C52  1  0.52260000  0.61020000  0.32820000  1.0 0.0997643141
C  C53  1  0.63380000  0.67960000  0.33780000  1.0 -0.0511950562
C  C54  1  0.40120000  0.61510000  0.34830000  1.0 0.2498753359
C  C55  1  0.13260000  0.53460000  0.15240000  1.0 0.0489189767
C  C56  1  0.35840000  0.53600000  0.38820000  1.0 0.0314838572
C  C57  1  0.29840000  0.59670000  0.23270000  1.0 0.0489189767
C  C58  1  0.37330000  0.46510000  0.35900000  1.0 0.0997643141
C  C59  1  0.34250000  0.63520000  0.17030000  1.0 0.1088292804
C  C60  1  0.45860000  0.73020000  0.20520000  1.0 -0.0754319029
C  C61  1  0.95550000  0.58860000  0.91150000  1.0 0.0489189767
C  C62  1  0.88040000  0.67020000  0.74100000  1.0 0.0997643141
C  C63  1  0.05860000  0.69990000  0.95850000  1.0 0.0997643141
C  C64  1  0.96570000  0.54650000  0.02960000  1.0 0.0314838572
C  C65  1  0.06330000  0.66250000  0.07640000  1.0 0.2163075572
C  C66  1  0.71450000  0.48250000  0.70540000  1.0 0.0906882978
C  C67  1  0.89130000  0.55580000  0.77270000  1.0 0.2428001007
C  C68  1  0.77050000  0.57710000  0.68160000  1.0 0.0557154556
C  C69  1  0.77920000  0.45790000  0.71530000  1.0 0.0314838572
C  C70  1  0.12820000  0.74550000  0.90950000  1.0 -0.0430831686
C  C71  1  0.89310000  0.53310000  0.96080000  1.0 0.1088292804
C  C72  1  0.94090000  0.76240000  0.71650000  1.0 -0.0430831686
C  C73  1  0.48500000  0.09030000  0.90550000  1.0 0.2163075572
C  C74  1  0.16220000  0.11470000  0.62990000  1.0 0.0161929707
C  C75  1  0.30920000  0.98450000  0.80290000  1.0 0.0906882978
C  C76  1  0.28200000  0.19440000  0.67180000  1.0 0.0997643141
C  C77  1  0.34180000  0.29600000  0.66220000  1.0 -0.0511950562
C  C78  1  0.26680000  0.05290000  0.65170000  1.0 0.2498753359
C  C79  1  0.38220000  0.98020000  0.84760000  1.0 0.0489189767
C  C80  1  0.14780000  0.97020000  0.61180000  1.0 0.0314838572
C  C81  1  0.36400000  0.06570000  0.76730000  1.0 0.0489189767
C  C82  1  0.10610000  0.01430000  0.64100000  1.0 0.0997643141
C  C83  1  0.46490000  0.17220000  0.82970000  1.0 0.1088292804
C  C84  1  0.52500000  0.25340000  0.79480000  1.0 -0.0754319029
C  C85  1  0.67710000  0.04400000  0.08850000  1.0 0.0489189767
C  C86  1  0.92920000  0.13940000  0.25900000  1.0 0.0997643141
C  C87  1  0.74140000  0.10010000  0.04150000  1.0 0.0997643141
C  C88  1  0.51690000  0.93610000  0.97040000  1.0 0.0314838572
C  C89  1  0.58610000  0.98690000  0.92360000  1.0 0.2163075572
C  C90  1  0.77710000  0.00910000  0.29460000  1.0 0.0906882978
C  C91  1  0.78310000  0.11860000  0.22730000  1.0 0.2428001007
C  C92  1  0.89550000  0.08890000  0.31840000  1.0 0.0557154556
C  C93  1  0.74260000  0.06390000  0.28470000  1.0 0.0314838572
C  C94  1  0.83600000  0.21870000  0.09050000  1.0 -0.0430831686
C  C95  1  0.57230000  0.93230000  0.03920000  1.0 0.1088292804
C  C96  1  0.04590000  0.22440000  0.28350000  1.0 -0.0430831686
O  O1  1  0.67211000  0.31243000  0.16614000  1.0 -0.2184614592
O  O2  1  0.49704000  0.46486000  0.34130000  1.0 -0.2608383829
O  O3  1  0.73966000  0.32087000  0.03753000  1.0 -0.3113636906
O  O4  1  0.56073000  0.29365000  0.22218000  1.0 -0.2724075476
O  O5  1  0.66234000  0.53058000  0.36892000  1.0 -0.2932779501
O  O6  1  0.44868000  0.33663000  0.42431000  1.0 -0.4106817404
O  O7  1  0.48255000  0.10574000  0.22789000  1.0 -0.3113636906
O  O8  1  0.39810000  0.99778000  0.05708000  1.0 -0.4954216043
O  O9  1  0.47700000  0.21970000  0.33570000  1.0 -0.3686089302
O  O10  1  0.81090000  0.54030000  0.32840000  1.0 -0.2608383829
O  O11  1  0.70835000  0.68043000  0.59038000  1.0 -0.3215500424
O  O12  1  0.71239000  0.60293000  0.67612000  1.0 -0.2387812296
O  O13  1  0.58290000  0.73355000  0.69065000  1.0 -0.2452681447
O  O14  1  0.63860000  0.89270000  0.70330000  1.0 -0.2608383829
O  O15  1  0.42651000  0.51332000  0.62243000  1.0 -0.4676492671
O  O16  1  0.50065000  0.41885000  0.57730000  1.0 -0.2184614592
O  O17  1  0.37787000  0.63303000  0.64150000  1.0 -0.2932779501
O  O18  1  0.73410000  0.09550000  0.79620000  1.0 -0.4150109152
O  O19  1  0.67640000  0.80840000  0.54620000  1.0 -0.2999698082
O  O20  1  0.39370000  0.74900000  0.77850000  1.0 -0.3686089302
O  O21  1  0.14629000  0.50597000  0.83386000  1.0 -0.2184614592
O  O22  1  0.12356000  0.15574000  0.65870000  1.0 -0.2608383829
O  O23  1  0.28334000  0.70213000  0.96247000  1.0 -0.3113636906
O  O24  1  0.07147000  0.33855000  0.77782000  1.0 -0.2724075476
O  O25  1  0.16166000  0.29342000  0.63108000  1.0 -0.2932779501
O  O26  1  0.91232000  0.02437000  0.57569000  1.0 -0.4106817404
O  O27  1  0.87785000  0.25466000  0.77211000  1.0 -0.3113636906
O  O28  1  0.94070000  0.34102000  0.94292000  1.0 -0.4954216043
O  O29  1  0.88400000  0.14130000  0.66430000  1.0 -0.3686089302
O  O30  1  0.21190000  0.48250000  0.67160000  1.0 -0.2608383829
O  O31  1  0.09005000  0.11797000  0.40962000  1.0 -0.3215500424
O  O32  1  0.92681000  0.03627000  0.32388000  1.0 -0.2387812296
O  O33  1  0.04290000  0.89225000  0.30935000  1.0 -0.2452681447
O  O34  1  0.18940000  0.93530000  0.29670000  1.0 -0.2608383829
O  O35  1  0.89089000  0.80408000  0.37757000  1.0 -0.4676492671
O  O36  1  0.84155000  0.92335000  0.42270000  1.0 -0.2184614592
O  O37  1  0.99153000  0.73637000  0.35850000  1.0 -0.2932779501
O  O38  1  0.29930000  0.93790000  0.20380000  1.0 -0.4150109152
O  O39  1  0.26220000  0.13020000  0.45380000  1.0 -0.2999698082
O  O40  1  0.97050000  0.61520000  0.22150000  1.0 -0.3686089302
O  O41  1  0.50597000  0.67211000  0.35968000  1.0 -0.2184614592
O  O42  1  0.15574000  0.49704000  0.03218000  1.0 -0.2608383829
O  O43  1  0.70213000  0.73966000  0.41879000  1.0 -0.3113636906
O  O44  1  0.33855000  0.56073000  0.26708000  1.0 -0.2724075476
O  O45  1  0.29342000  0.66234000  0.13176000  1.0 -0.2932779501
O  O46  1  0.02437000  0.44868000  0.11205000  1.0 -0.4106817404
O  O47  1  0.25466000  0.48255000  0.37681000  1.0 -0.3113636906
O  O48  1  0.34102000  0.39810000  0.40032000  1.0 -0.4954216043
O  O49  1  0.14130000  0.47700000  0.25730000  1.0 -0.3686089302
O  O50  1  0.48250000  0.81090000  0.27060000  1.0 -0.2608383829
O  O51  1  0.11797000  0.70835000  0.02792000  1.0 -0.3215500424
O  O52  1  0.03627000  0.71239000  0.10946000  1.0 -0.2387812296
O  O53  1  0.89225000  0.58290000  0.84935000  1.0 -0.2452681447
O  O54  1  0.93530000  0.63860000  0.74590000  1.0 -0.2608383829
O  O55  1  0.80408000  0.42651000  0.91319000  1.0 -0.4676492671
O  O56  1  0.92335000  0.50065000  0.08180000  1.0 -0.2149708132
O  O57  1  0.73637000  0.37787000  0.74484000  1.0 -0.2932779501
O  O58  1  0.93790000  0.73410000  0.63860000  1.0 -0.4150109152
O  O59  1  0.13020000  0.67640000  0.86800000  1.0 -0.2999698082
O  O60  1  0.61520000  0.39370000  0.64470000  1.0 -0.3686089302
O  O61  1  0.31243000  0.14629000  0.64032000  1.0 -0.2184614592
O  O62  1  0.46486000  0.12356000  0.96782000  1.0 -0.2608383829
O  O63  1  0.32087000  0.28334000  0.58121000  1.0 -0.3113636906
O  O64  1  0.29365000  0.07147000  0.73292000  1.0 -0.2724075476
O  O65  1  0.53058000  0.16166000  0.86824000  1.0 -0.2932779501
O  O66  1  0.33663000  0.91232000  0.88795000  1.0 -0.4106817404
O  O67  1  0.10574000  0.87785000  0.62319000  1.0 -0.3113636906
O  O68  1  0.99778000  0.94070000  0.59968000  1.0 -0.4954216043
O  O69  1  0.21970000  0.88400000  0.74270000  1.0 -0.3686089302
O  O70  1  0.54030000  0.21190000  0.72940000  1.0 -0.2608383829
O  O71  1  0.68043000  0.09005000  0.97208000  1.0 -0.3215500424
O  O72  1  0.60293000  0.92681000  0.89054000  1.0 -0.2387812296
O  O73  1  0.73355000  0.04290000  0.15065000  1.0 -0.2452681447
O  O74  1  0.89270000  0.18940000  0.25410000  1.0 -0.2608383829
O  O75  1  0.51332000  0.89089000  0.08681000  1.0 -0.4676492671
O  O76  1  0.41885000  0.84155000  0.91820000  1.0 -0.2184614592
O  O77  1  0.63303000  0.99153000  0.25516000  1.0 -0.2932779501
O  O78  1  0.09550000  0.29930000  0.36140000  1.0 -0.4150109152
O  O79  1  0.80840000  0.26220000  0.13200000  1.0 -0.2999698082
O  O80  1  0.74900000  0.97050000  0.35530000  1.0 -0.3686089302
