# DDEC6 charges by PACMAN v1.1 (https://github.com/mtap-research/PACMAN-charge/)
data_ZUHJIY_ASR_pacman
_symmetry_space_group_name_H-M   'P 1'
_cell_length_a   7.22800000
_cell_length_b   10.73300000
_cell_length_c   11.74570000
_cell_angle_alpha   108.22000000
_cell_angle_beta   91.31100000
_cell_angle_gamma   100.10400000
_symmetry_Int_Tables_number   1
_chemical_formula_structural   CdH20C26S2(NO2)2
_chemical_formula_sum   'Cd1 H20 C26 S2 N2 O4'
_cell_volume   849.15161485
_cell_formula_units_Z   1
loop_
 _symmetry_equiv_pos_site_id
 _symmetry_equiv_pos_as_xyz
  1  'x, y, z'
loop_
 _atom_site_type_symbol
 _atom_site_label
 _atom_site_symmetry_multiplicity
 _atom_site_fract_x
 _atom_site_fract_y
 _atom_site_fract_z
 _atom_site_occupancy
 _atom_site_charge
Cd  Cd1  1  0.50000000  0.50000000  0.50000000  1.0 0.847663766
H  H1  1  0.09631000  0.54772000  0.59667000  1.0 0.1092728484
H  H2  1  0.94739000  0.68994000  0.73542000  1.0 0.1415705552
H  H3  1  0.45222000  0.90001000  0.88610000  1.0 0.1228612253
H  H4  1  0.58824000  0.75544000  0.74043000  1.0 0.1092728484
H  H5  1  0.94094000  0.95256000  0.79604000  1.0 0.1228612253
H  H6  1  0.64511000  0.14074000  0.71329000  1.0 0.1798623858
H  H7  1  0.68875000  0.00443000  0.71825000  1.0 0.1415705552
H  H8  1  0.85461000  0.12279000  0.72478000  1.0 0.1554180069
H  H9  1  0.05440000  0.81009000  0.53770000  1.0 0.1092728484
H  H10  1  0.30064000  0.98859000  0.56270000  1.0 0.1228612253
H  H11  1  0.90369000  0.45228000  0.40333000  1.0 0.1092728484
H  H12  1  0.05261000  0.31006000  0.26458000  1.0 0.1415705552
H  H13  1  0.54778000  0.09999000  0.11390000  1.0 0.1228612253
H  H14  1  0.41176000  0.24456000  0.25957000  1.0 0.1092728484
H  H15  1  0.05906000  0.04744000  0.20396000  1.0 0.1228612253
H  H16  1  0.35489000  0.85926000  0.28671000  1.0 0.1798623858
H  H17  1  0.31125000  0.99557000  0.28175000  1.0 0.1415705552
H  H18  1  0.14539000  0.87721000  0.27522000  1.0 0.1554180069
H  H19  1  0.94560000  0.18991000  0.46230000  1.0 0.1092728484
H  H20  1  0.69936000  0.01141000  0.43730000  1.0 0.1228612253
C  C1  1  0.16950000  0.62040000  0.65530000  1.0 0.0825262127
C  C2  1  0.07840000  0.70520000  0.73920000  1.0 -0.1794759089
C  C3  1  0.18260000  0.81220000  0.82820000  1.0 0.1228612253
C  C4  1  0.37610000  0.82920000  0.82740000  1.0 -0.197358066
C  C5  1  0.45750000  0.74130000  0.73960000  1.0 0.0825262127
C  C6  1  0.08890000  0.90780000  0.91790000  1.0 0.0321100934
C  C7  1  0.96580000  0.97210000  0.87840000  1.0 -0.1794759089
C  C8  1  0.87620000  0.06560000  0.95670000  1.0 -0.0053467607
C  C9  1  0.72970000  0.09980000  0.74750000  1.0 -0.4396921338
C  C10  1  0.68930000  0.77660000  0.47120000  1.0 0.5477317033
C  C11  1  0.85180000  0.89170000  0.48450000  1.0 -0.0287984142
C  C12  1  0.03200000  0.88630000  0.52230000  1.0 -0.1219043301
C  C13  1  0.18000000  0.99360000  0.53760000  1.0 -0.1069823222
C  C14  1  0.83050000  0.37960000  0.34470000  1.0 0.0825262127
C  C15  1  0.92160000  0.29480000  0.26080000  1.0 -0.1794759089
C  C16  1  0.81740000  0.18780000  0.17180000  1.0 0.1228612253
C  C17  1  0.62390000  0.17080000  0.17260000  1.0 -0.197358066
C  C18  1  0.54250000  0.25870000  0.26040000  1.0 0.0825262127
C  C19  1  0.91110000  0.09220000  0.08210000  1.0 0.0321100934
C  C20  1  0.03420000  0.02790000  0.12160000  1.0 -0.1794759089
C  C21  1  0.12380000  0.93440000  0.04330000  1.0 -0.0053467607
C  C22  1  0.27030000  0.90020000  0.25250000  1.0 -0.4396921338
C  C23  1  0.31070000  0.22340000  0.52880000  1.0 0.5477317033
C  C24  1  0.14820000  0.10830000  0.51550000  1.0 -0.0287984142
C  C25  1  0.96800000  0.11370000  0.47770000  1.0 -0.1219043301
C  C26  1  0.82000000  0.00640000  0.46240000  1.0 -0.1069823222
S  S1  1  0.73066000  0.15817000  0.90810000  1.0 0.0493212474
S  S2  1  0.26934000  0.84183000  0.09190000  1.0 0.0493212474
N  N1  1  0.35600000  0.63710000  0.65380000  1.0 -0.2279312553
N  N2  1  0.64400000  0.36290000  0.34620000  1.0 -0.2279312553
O  O1  1  0.72260000  0.68130000  0.50530000  1.0 -0.6078478636
O  O2  1  0.53470000  0.78330000  0.42810000  1.0 -0.5609193386
O  O3  1  0.27740000  0.31870000  0.49470000  1.0 -0.6078478636
O  O4  1  0.46530000  0.21670000  0.57190000  1.0 -0.5609193386
