# DDEC6 charges by PACMAN v1.1 (https://github.com/mtap-research/PACMAN-charge/)
data_ZUMZAL_FSR_pacman
_symmetry_space_group_name_H-M   'P 1'
_cell_length_a   13.66830000
_cell_length_b   14.86510000
_cell_length_c   16.78550000
_cell_angle_alpha   96.74800000
_cell_angle_beta   101.72200000
_cell_angle_gamma   89.75500000
_symmetry_Int_Tables_number   1
_chemical_formula_structural   SrH15(C11O3)2
_chemical_formula_sum   'Sr4 H60 C88 O24'
_cell_volume   3315.55581546
_cell_formula_units_Z   4
loop_
 _symmetry_equiv_pos_site_id
 _symmetry_equiv_pos_as_xyz
  1  'x, y, z'
loop_
 _atom_site_type_symbol
 _atom_site_label
 _atom_site_symmetry_multiplicity
 _atom_site_fract_x
 _atom_site_fract_y
 _atom_site_fract_z
 _atom_site_occupancy
 _atom_site_charge
Sr  Sr1  1  0.88157000  0.07592000  0.02172000  1.0 1.4228907124
Sr  Sr2  1  0.61572000  0.93419000  0.96192000  1.0 1.4318031566
Sr  Sr3  1  0.11843000  0.92408000  0.97828000  1.0 1.4228907124
Sr  Sr4  1  0.38428000  0.06581000  0.03808000  1.0 1.4318031566
H  H1  1  0.74690000  0.20610000  0.49070000  1.0 0.1188455918
H  H2  1  0.70010000  0.40980000  0.29140000  1.0 0.1115601946
H  H3  1  0.69600000  0.56140000  0.29270000  1.0 0.1115601946
H  H4  1  0.74460000  0.80590000  0.49840000  1.0 0.1188455918
H  H5  1  0.79930000  0.60140000  0.69570000  1.0 0.1115601946
H  H6  1  0.79760000  0.45130000  0.69310000  1.0 0.1115601946
H  H7  1  0.55690000  0.09100000  0.22910000  1.0 0.1188455918
H  H8  1  0.59640000  0.17570000  0.35850000  1.0 0.1188455918
H  H9  1  0.83290000  0.29270000  0.29480000  1.0 0.1115601946
H  H10  1  0.80340000  0.19690000  0.17150000  1.0 0.0912090865
H  H11  1  0.52750000  0.74130000  0.17890000  1.0 0.1188455918
H  H12  1  0.55910000  0.67930000  0.30270000  1.0 0.1188455918
H  H13  1  0.83390000  0.80300000  0.36330000  1.0 0.1188455918
H  H14  1  0.80280000  0.86110000  0.23810000  1.0 0.1115601946
H  H15  1  0.68430000  0.90640000  0.76920000  1.0 0.1188455918
H  H16  1  0.65720000  0.82590000  0.63980000  1.0 0.1188455918
H  H17  1  0.93440000  0.72460000  0.68750000  1.0 0.1188455918
H  H18  1  0.96820000  0.82300000  0.81020000  1.0 0.1005922266
H  H19  1  0.68420000  0.25670000  0.80140000  1.0 0.1188455918
H  H20  1  0.65810000  0.32940000  0.68180000  1.0 0.1115601946
H  H21  1  0.90190000  0.21030000  0.62090000  1.0 0.1188455918
H  H22  1  0.94400000  0.15960000  0.75190000  1.0 0.1115601946
H  H23  1  0.84710000  0.93230000  0.12940000  1.0 0.380358487
H  H24  1  0.92590000  0.98630000  0.17920000  1.0 0.350786169
H  H25  1  0.92130000  0.27130000  0.12060000  1.0 0.3438061969
H  H26  1  0.88530000  0.28990000  0.03980000  1.0 0.380358487
H  H27  1  0.62820000  0.05620000  0.83730000  1.0 0.3218524949
H  H28  1  0.60610000  0.11240000  0.90040000  1.0 0.350786169
H  H29  1  0.54260000  0.72940000  0.87210000  1.0 0.402473797
H  H30  1  0.64700000  0.75160000  0.83850000  1.0 0.380358487
H  H31  1  0.25310000  0.79390000  0.50930000  1.0 0.1188455918
H  H32  1  0.29990000  0.59020000  0.70860000  1.0 0.1115601946
H  H33  1  0.30400000  0.43860000  0.70730000  1.0 0.1115601946
H  H34  1  0.25540000  0.19410000  0.50160000  1.0 0.1188455918
H  H35  1  0.20070000  0.39860000  0.30430000  1.0 0.1115601946
H  H36  1  0.20240000  0.54870000  0.30690000  1.0 0.1115601946
H  H37  1  0.44310000  0.90900000  0.77090000  1.0 0.1188455918
H  H38  1  0.40360000  0.82430000  0.64150000  1.0 0.1188455918
H  H39  1  0.16710000  0.70730000  0.70520000  1.0 0.1115601946
H  H40  1  0.19660000  0.80310000  0.82850000  1.0 0.0912090865
H  H41  1  0.47250000  0.25870000  0.82110000  1.0 0.1188455918
H  H42  1  0.44090000  0.32070000  0.69730000  1.0 0.1115601946
H  H43  1  0.16610000  0.19700000  0.63670000  1.0 0.1188455918
H  H44  1  0.19720000  0.13890000  0.76190000  1.0 0.1115601946
H  H45  1  0.31570000  0.09360000  0.23080000  1.0 0.1188455918
H  H46  1  0.34280000  0.17410000  0.36020000  1.0 0.1188455918
H  H47  1  0.06560000  0.27540000  0.31250000  1.0 0.1188455918
H  H48  1  0.03180000  0.17700000  0.18980000  1.0 0.1005922266
H  H49  1  0.31580000  0.74330000  0.19860000  1.0 0.1188455918
H  H50  1  0.34190000  0.67060000  0.31820000  1.0 0.1115601946
H  H51  1  0.09810000  0.78970000  0.37910000  1.0 0.1188455918
H  H52  1  0.05600000  0.84040000  0.24810000  1.0 0.1115601946
H  H53  1  0.15290000  0.06770000  0.87060000  1.0 0.380358487
H  H54  1  0.07410000  0.01370000  0.82080000  1.0 0.350786169
H  H55  1  0.07870000  0.72870000  0.87940000  1.0 0.3438061969
H  H56  1  0.11470000  0.71010000  0.96020000  1.0 0.380358487
H  H57  1  0.37180000  0.94380000  0.16270000  1.0 0.3218524949
H  H58  1  0.39390000  0.88760000  0.09960000  1.0 0.350786169
H  H59  1  0.45740000  0.27060000  0.12790000  1.0 0.402473797
H  H60  1  0.35300000  0.24840000  0.16150000  1.0 0.380358487
C  C1  1  0.76350000  0.32430000  0.56490000  1.0 0.0105776985
C  C2  1  0.74700000  0.27000000  0.49080000  1.0 -0.1980294241
C  C3  1  0.73000000  0.30630000  0.41440000  1.0 0.0105776985
C  C4  1  0.71140000  0.44660000  0.34270000  1.0 -0.1500811415
C  C5  1  0.70870000  0.53630000  0.34320000  1.0 -0.1500811415
C  C6  1  0.72260000  0.68800000  0.42000000  1.0 0.0105776985
C  C7  1  0.74520000  0.74180000  0.49730000  1.0 -0.1980294241
C  C8  1  0.76790000  0.70610000  0.57050000  1.0 0.0105776985
C  C9  1  0.78620000  0.56510000  0.64400000  1.0 -0.1500811415
C  C10  1  0.78490000  0.47660000  0.64270000  1.0 -0.1414186163
C  C11  1  0.76500000  0.41690000  0.56750000  1.0 0.0241359276
C  C12  1  0.73050000  0.40290000  0.41620000  1.0 0.0311446944
C  C13  1  0.72460000  0.59550000  0.41890000  1.0 0.0311446944
C  C14  1  0.76840000  0.61010000  0.57000000  1.0 0.0241359276
C  C15  1  0.74920000  0.45870000  0.49360000  1.0 0.0105776985
C  C16  1  0.74640000  0.55530000  0.49510000  1.0 0.0105776985
C  C17  1  0.65520000  0.08350000  0.10550000  1.0 0.6066670315
C  C18  1  0.67700000  0.13730000  0.18690000  1.0 -0.0449544704
C  C19  1  0.61370000  0.13070000  0.24300000  1.0 -0.0970923408
C  C20  1  0.63580000  0.18320000  0.31910000  1.0 -0.1500811415
C  C21  1  0.71460000  0.24650000  0.33870000  1.0 0.0743267284
C  C22  1  0.77770000  0.25120000  0.28220000  1.0 -0.157959628
C  C23  1  0.75890000  0.19520000  0.20810000  1.0 -0.1156945779
C  C24  1  0.64830000  0.83920000  0.11290000  1.0 0.5583178894
C  C25  1  0.66430000  0.80490000  0.19570000  1.0 -0.0168310842
C  C26  1  0.59010000  0.75210000  0.21570000  1.0 -0.0930267079
C  C27  1  0.60870000  0.71590000  0.28920000  1.0 -0.157959628
C  C28  1  0.70110000  0.73300000  0.34450000  1.0 0.0811397033
C  C29  1  0.77260000  0.78900000  0.32550000  1.0 -0.1500811415
C  C30  1  0.75370000  0.82370000  0.25130000  1.0 -0.1063232823
C  C31  1  0.84470000  0.91820000  0.88890000  1.0 0.6158188479
C  C32  1  0.82730000  0.86750000  0.80140000  1.0 -0.0138652614
C  C33  1  0.73580000  0.87100000  0.75170000  1.0 -0.1156945779
C  C34  1  0.71990000  0.82210000  0.67590000  1.0 -0.1500811415
C  C35  1  0.79120000  0.76790000  0.65020000  1.0 0.0912090865
C  C36  1  0.88470000  0.76410000  0.70260000  1.0 -0.1500811415
C  C37  1  0.90310000  0.81900000  0.77670000  1.0 -0.1156945779
C  C38  1  0.83670000  0.16070000  0.86630000  1.0 0.5469928281
C  C39  1  0.81470000  0.19820000  0.78580000  1.0 -0.0258326726
C  C40  1  0.73070000  0.24970000  0.76610000  1.0 -0.0970923408
C  C41  1  0.71420000  0.29170000  0.69400000  1.0 -0.1500811415
C  C42  1  0.77960000  0.27810000  0.64050000  1.0 0.0811397033
C  C43  1  0.86030000  0.22430000  0.65950000  1.0 -0.1500811415
C  C44  1  0.88260000  0.18910000  0.73560000  1.0 -0.0930267079
C  C45  1  0.23650000  0.67570000  0.43510000  1.0 0.0105776985
C  C46  1  0.25300000  0.73000000  0.50920000  1.0 -0.1980294241
C  C47  1  0.27000000  0.69370000  0.58560000  1.0 0.0105776985
C  C48  1  0.28860000  0.55340000  0.65730000  1.0 -0.1500811415
C  C49  1  0.29130000  0.46370000  0.65680000  1.0 -0.1500811415
C  C50  1  0.27740000  0.31200000  0.58000000  1.0 0.0105776985
C  C51  1  0.25480000  0.25820000  0.50270000  1.0 -0.1980294241
C  C52  1  0.23210000  0.29390000  0.42950000  1.0 0.0105776985
C  C53  1  0.21380000  0.43490000  0.35600000  1.0 -0.1500811415
C  C54  1  0.21510000  0.52340000  0.35730000  1.0 -0.1414186163
C  C55  1  0.23500000  0.58310000  0.43250000  1.0 0.0241359276
C  C56  1  0.26950000  0.59710000  0.58380000  1.0 0.0311446944
C  C57  1  0.27540000  0.40450000  0.58110000  1.0 0.0311446944
C  C58  1  0.23160000  0.38990000  0.43000000  1.0 0.0241359276
C  C59  1  0.25080000  0.54130000  0.50640000  1.0 0.0105776985
C  C60  1  0.25360000  0.44470000  0.50490000  1.0 0.0105776985
C  C61  1  0.34480000  0.91650000  0.89450000  1.0 0.6066670315
C  C62  1  0.32300000  0.86270000  0.81310000  1.0 -0.0449544704
C  C63  1  0.38630000  0.86930000  0.75700000  1.0 -0.0970923408
C  C64  1  0.36420000  0.81680000  0.68090000  1.0 -0.1500811415
C  C65  1  0.28540000  0.75350000  0.66130000  1.0 0.0743267284
C  C66  1  0.22230000  0.74880000  0.71780000  1.0 -0.157959628
C  C67  1  0.24110000  0.80480000  0.79190000  1.0 -0.1156945779
C  C68  1  0.35170000  0.16080000  0.88710000  1.0 0.5583178894
C  C69  1  0.33570000  0.19510000  0.80430000  1.0 -0.0168310842
C  C70  1  0.40990000  0.24790000  0.78430000  1.0 -0.0930267079
C  C71  1  0.39130000  0.28410000  0.71080000  1.0 -0.157959628
C  C72  1  0.29890000  0.26700000  0.65550000  1.0 0.0811397033
C  C73  1  0.22740000  0.21100000  0.67450000  1.0 -0.1500811415
C  C74  1  0.24630000  0.17630000  0.74870000  1.0 -0.1063232823
C  C75  1  0.15530000  0.08180000  0.11110000  1.0 0.6158188479
C  C76  1  0.17270000  0.13250000  0.19860000  1.0 -0.0138652614
C  C77  1  0.26420000  0.12900000  0.24830000  1.0 -0.1156945779
C  C78  1  0.28010000  0.17790000  0.32410000  1.0 -0.1500811415
C  C79  1  0.20880000  0.23210000  0.34980000  1.0 0.0912090865
C  C80  1  0.11530000  0.23590000  0.29740000  1.0 -0.1500811415
C  C81  1  0.09690000  0.18100000  0.22330000  1.0 -0.1156945779
C  C82  1  0.16330000  0.83930000  0.13370000  1.0 0.5469928281
C  C83  1  0.18530000  0.80180000  0.21420000  1.0 -0.0258326726
C  C84  1  0.26930000  0.75030000  0.23390000  1.0 -0.0970923408
C  C85  1  0.28580000  0.70830000  0.30600000  1.0 -0.1500811415
C  C86  1  0.22040000  0.72190000  0.35950000  1.0 0.0811397033
C  C87  1  0.13970000  0.77570000  0.34050000  1.0 -0.1500811415
C  C88  1  0.11740000  0.81090000  0.26440000  1.0 -0.0930267079
O  O1  1  0.90580000  0.95900000  0.12730000  1.0 -0.7361587389
O  O2  1  0.89960000  0.24470000  0.07000000  1.0 -0.7491200669
O  O3  1  0.58830000  0.06180000  0.87090000  1.0 -0.7094965084
O  O4  1  0.59890000  0.78030000  0.87710000  1.0 -0.8257694347
O  O5  1  0.71920000  0.07290000  0.06270000  1.0 -0.6383126481
O  O6  1  0.56950000  0.04720000  0.08080000  1.0 -0.6273185714
O  O7  1  0.72180000  0.86770000  0.08880000  1.0 -0.6112851156
O  O8  1  0.55840000  0.83560000  0.06870000  1.0 -0.6112851156
O  O9  1  0.77510000  0.95310000  0.91440000  1.0 -0.6191537781
O  O10  1  0.93550000  0.92920000  0.92910000  1.0 -0.6534662946
O  O11  1  0.76930000  0.16220000  0.90820000  1.0 -0.6191537781
O  O12  1  0.92180000  0.12970000  0.88970000  1.0 -0.5629012092
O  O13  1  0.09420000  0.04100000  0.87270000  1.0 -0.7346063955
O  O14  1  0.10040000  0.75530000  0.93000000  1.0 -0.7491200669
O  O15  1  0.41170000  0.93820000  0.12910000  1.0 -0.7094965084
O  O16  1  0.40110000  0.21970000  0.12290000  1.0 -0.8257694347
O  O17  1  0.28080000  0.92710000  0.93730000  1.0 -0.6383126481
O  O18  1  0.43050000  0.95280000  0.91920000  1.0 -0.6273185714
O  O19  1  0.27820000  0.13230000  0.91120000  1.0 -0.6112851156
O  O20  1  0.44160000  0.16440000  0.93130000  1.0 -0.6112851156
O  O21  1  0.22490000  0.04690000  0.08560000  1.0 -0.6191537781
O  O22  1  0.06450000  0.07080000  0.07090000  1.0 -0.6534662946
O  O23  1  0.23070000  0.83780000  0.09180000  1.0 -0.6191537781
O  O24  1  0.07820000  0.87030000  0.11030000  1.0 -0.5629012092
