# DDEC6 charges by PACMAN v1.1 (https://github.com/mtap-research/PACMAN-charge/)
data_ZUQBUK_FSR_pacman
_symmetry_space_group_name_H-M   'P 1'
_cell_length_a   14.41500000
_cell_length_b   14.41500000
_cell_length_c   14.41500000
_cell_angle_alpha   129.23600000
_cell_angle_beta   129.23600000
_cell_angle_gamma   74.63090000
_symmetry_Int_Tables_number   1
_chemical_formula_structural   FeH20(C5N)6
_chemical_formula_sum   'Fe2 H40 C60 N12'
_cell_volume   1750.84916103
_cell_formula_units_Z   2
loop_
 _symmetry_equiv_pos_site_id
 _symmetry_equiv_pos_as_xyz
  1  'x, y, z'
loop_
 _atom_site_type_symbol
 _atom_site_label
 _atom_site_symmetry_multiplicity
 _atom_site_fract_x
 _atom_site_fract_y
 _atom_site_fract_z
 _atom_site_occupancy
 _atom_site_charge
Fe  Fe1  1  0.00000000  0.00000000  0.00000000  1.0 0.6983998969
Fe  Fe2  1  0.50000000  0.50000000  0.00000000  1.0 0.6983998969
H  H1  1  0.54930000  0.18210000  0.73140000  1.0 0.1130501201
H  H2  1  0.18210000  0.45070000  0.63280000  1.0 0.1130501201
H  H3  1  0.45070000  0.81790000  0.26860000  1.0 0.1130501201
H  H4  1  0.81790000  0.54930000  0.36720000  1.0 0.1130501201
H  H5  1  0.95070000  0.68210000  0.63280000  1.0 0.1130501201
H  H6  1  0.68210000  0.04930000  0.73140000  1.0 0.1130501201
H  H7  1  0.04930000  0.31790000  0.36720000  1.0 0.1130501201
H  H8  1  0.31790000  0.95070000  0.26860000  1.0 0.1130501201
H  H9  1  0.25720000  0.06850000  0.11830000  1.0 0.1009983235
H  H10  1  0.06850000  0.95020000  0.81130000  1.0 0.1009983235
H  H11  1  0.95020000  0.13890000  0.88170000  1.0 0.1009983235
H  H12  1  0.13890000  0.25720000  0.18870000  1.0 0.1009983235
H  H13  1  0.24280000  0.36110000  0.81130000  1.0 0.1009983235
H  H14  1  0.36110000  0.54980000  0.11830000  1.0 0.1009983235
H  H15  1  0.54980000  0.43150000  0.18870000  1.0 0.1009983235
H  H16  1  0.43150000  0.24280000  0.88170000  1.0 0.1009983235
H  H17  1  0.74280000  0.93150000  0.88170000  1.0 0.1009983235
H  H18  1  0.93150000  0.04980000  0.18870000  1.0 0.1009983235
H  H19  1  0.04980000  0.86110000  0.11830000  1.0 0.1009983235
H  H20  1  0.86110000  0.74280000  0.81130000  1.0 0.1009983235
H  H21  1  0.75720000  0.63890000  0.18870000  1.0 0.1009983235
H  H22  1  0.63890000  0.45020000  0.88170000  1.0 0.1009983235
H  H23  1  0.45020000  0.56850000  0.81130000  1.0 0.1009983235
H  H24  1  0.56850000  0.75720000  0.11830000  1.0 0.1009983235
H  H25  1  0.36300000  0.16920000  0.11760000  1.0 0.0909986114
H  H26  1  0.16920000  0.05160000  0.80620000  1.0 0.0909986114
H  H27  1  0.05160000  0.24540000  0.88240000  1.0 0.0909986114
H  H28  1  0.24540000  0.36300000  0.19380000  1.0 0.0909986114
H  H29  1  0.13700000  0.25460000  0.80620000  1.0 0.0909986114
H  H30  1  0.25460000  0.44840000  0.11760000  1.0 0.0909986114
H  H31  1  0.44840000  0.33080000  0.19380000  1.0 0.0909986114
H  H32  1  0.33080000  0.13700000  0.88240000  1.0 0.0909986114
H  H33  1  0.63700000  0.83080000  0.88240000  1.0 0.0909986114
H  H34  1  0.83080000  0.94840000  0.19380000  1.0 0.0909986114
H  H35  1  0.94840000  0.75460000  0.11760000  1.0 0.0909986114
H  H36  1  0.75460000  0.63700000  0.80620000  1.0 0.0909986114
H  H37  1  0.86300000  0.74540000  0.19380000  1.0 0.0909986114
H  H38  1  0.74540000  0.55160000  0.88240000  1.0 0.0909986114
H  H39  1  0.55160000  0.66920000  0.80620000  1.0 0.0909986114
H  H40  1  0.66920000  0.86300000  0.11760000  1.0 0.0909986114
C  C1  1  0.22685000  0.13498000  0.36183000  1.0 0.2662631824
C  C2  1  0.13498000  0.77315000  0.90813000  1.0 0.2662631824
C  C3  1  0.77315000  0.86502000  0.63817000  1.0 0.2662631824
C  C4  1  0.86502000  0.22685000  0.09187000  1.0 0.2662631824
C  C5  1  0.27315000  0.63498000  0.90813000  1.0 0.2662631824
C  C6  1  0.63498000  0.72685000  0.36183000  1.0 0.2662631824
C  C7  1  0.72685000  0.36502000  0.09187000  1.0 0.2662631824
C  C8  1  0.36502000  0.27315000  0.63817000  1.0 0.2662631824
C  C9  1  0.33499000  0.16501000  0.50000000  1.0 -0.2005513951
C  C10  1  0.16501000  0.66501000  0.83002000  1.0 -0.2005513951
C  C11  1  0.66501000  0.83499000  0.50000000  1.0 -0.2005513951
C  C12  1  0.83499000  0.33499000  0.16998000  1.0 -0.2005513951
C  C13  1  0.41905000  0.08095000  0.50000000  1.0 0.0909986114
C  C14  1  0.08095000  0.58095000  0.66190000  1.0 0.1009983235
C  C15  1  0.58095000  0.91905000  0.50000000  1.0 0.1009983235
C  C16  1  0.91905000  0.41905000  0.33810000  1.0 0.1009983235
C  C17  1  0.52870000  0.10800000  0.63670000  1.0 -0.1746036008
C  C18  1  0.10800000  0.47130000  0.57930000  1.0 -0.1756807334
C  C19  1  0.47130000  0.89200000  0.36330000  1.0 -0.1756807334
C  C20  1  0.89200000  0.52870000  0.42070000  1.0 -0.1756807334
C  C21  1  0.97130000  0.60800000  0.57930000  1.0 -0.1756807334
C  C22  1  0.60800000  0.02870000  0.63670000  1.0 -0.1756807334
C  C23  1  0.02870000  0.39200000  0.42070000  1.0 -0.1756807334
C  C24  1  0.39200000  0.97130000  0.36330000  1.0 -0.1756807334
C  C25  1  0.21320000  0.10390000  0.06810000  1.0 0.0029266559
C  C26  1  0.10390000  0.03580000  0.89070000  1.0 0.0029266559
C  C27  1  0.03580000  0.14510000  0.93190000  1.0 0.0029266559
C  C28  1  0.14510000  0.21320000  0.10930000  1.0 0.0029266559
C  C29  1  0.28680000  0.35490000  0.89070000  1.0 0.0029266559
C  C30  1  0.35490000  0.46420000  0.06810000  1.0 0.0029266559
C  C31  1  0.46420000  0.39610000  0.10930000  1.0 0.0029266559
C  C32  1  0.39610000  0.28680000  0.93190000  1.0 0.0029266559
C  C33  1  0.78680000  0.89610000  0.93190000  1.0 0.0029266559
C  C34  1  0.89610000  0.96420000  0.10930000  1.0 0.0029266559
C  C35  1  0.96420000  0.85490000  0.06810000  1.0 0.0029266559
C  C36  1  0.85490000  0.78680000  0.89070000  1.0 0.0029266559
C  C37  1  0.71320000  0.64510000  0.10930000  1.0 0.0029266559
C  C38  1  0.64510000  0.53580000  0.93190000  1.0 0.0029266559
C  C39  1  0.53580000  0.60390000  0.89070000  1.0 0.0029266559
C  C40  1  0.60390000  0.71320000  0.06810000  1.0 0.0029266559
C  C41  1  0.27770000  0.16550000  0.06860000  1.0 -0.0997427496
C  C42  1  0.16550000  0.09690000  0.88780000  1.0 -0.0997427496
C  C43  1  0.09690000  0.20910000  0.93140000  1.0 -0.0997427496
C  C44  1  0.20910000  0.27770000  0.11220000  1.0 -0.0997427496
C  C45  1  0.22230000  0.29090000  0.88780000  1.0 -0.0997427496
C  C46  1  0.29090000  0.40310000  0.06860000  1.0 -0.0997427496
C  C47  1  0.40310000  0.33450000  0.11220000  1.0 -0.0997427496
C  C48  1  0.33450000  0.22230000  0.93140000  1.0 -0.0997427496
C  C49  1  0.72230000  0.83450000  0.93140000  1.0 -0.0997427496
C  C50  1  0.83450000  0.90310000  0.11220000  1.0 -0.0997427496
C  C51  1  0.90310000  0.79090000  0.06860000  1.0 -0.0997427496
C  C52  1  0.79090000  0.72230000  0.88780000  1.0 -0.0997427496
C  C53  1  0.77770000  0.70910000  0.11220000  1.0 -0.0997427496
C  C54  1  0.70910000  0.59690000  0.93140000  1.0 -0.0997427496
C  C55  1  0.59690000  0.66550000  0.88780000  1.0 -0.0997427496
C  C56  1  0.66550000  0.77770000  0.06860000  1.0 -0.0997427496
C  C57  1  0.21780000  0.21780000  0.00000000  1.0 0.0127835303
C  C58  1  0.28220000  0.28220000  0.00000000  1.0 0.0157824766
C  C59  1  0.78220000  0.78220000  0.00000000  1.0 0.0157824766
C  C60  1  0.71780000  0.71780000  0.00000000  1.0 0.0157824766
N  N1  1  0.14069000  0.10078000  0.24147000  1.0 -0.4565981075
N  N2  1  0.10078000  0.85931000  0.96009000  1.0 -0.4565981075
N  N3  1  0.85931000  0.89922000  0.75853000  1.0 -0.4565981075
N  N4  1  0.89922000  0.14069000  0.03991000  1.0 -0.4565981075
N  N5  1  0.35931000  0.60078000  0.96009000  1.0 -0.4565981075
N  N6  1  0.60078000  0.64069000  0.24147000  1.0 -0.4565981075
N  N7  1  0.64069000  0.39922000  0.03991000  1.0 -0.4565981075
N  N8  1  0.39922000  0.35931000  0.75853000  1.0 -0.4565981075
N  N9  1  0.09559000  0.09559000  0.00000000  1.0 -0.13724126
N  N10  1  0.40441000  0.40441000  0.00000000  1.0 -0.13724126
N  N11  1  0.90441000  0.90441000  0.00000000  1.0 -0.13724126
N  N12  1  0.59559000  0.59559000  0.00000000  1.0 -0.13724126
