# DDEC6 charges by PACMAN v1.1 (https://github.com/mtap-research/PACMAN-charge/)
data_ZUQBOE_FSR_pacman
_symmetry_space_group_name_H-M   'P 1'
_cell_length_a   14.37680000
_cell_length_b   14.37680000
_cell_length_c   14.37680000
_cell_angle_alpha   129.17100000
_cell_angle_beta   129.17100000
_cell_angle_gamma   74.73580000
_symmetry_Int_Tables_number   1
_chemical_formula_structural   FeH20(C5N)6
_chemical_formula_sum   'Fe2 H40 C60 N12'
_cell_volume   1739.90627159
_cell_formula_units_Z   2
loop_
 _symmetry_equiv_pos_site_id
 _symmetry_equiv_pos_as_xyz
  1  'x, y, z'
loop_
 _atom_site_type_symbol
 _atom_site_label
 _atom_site_symmetry_multiplicity
 _atom_site_fract_x
 _atom_site_fract_y
 _atom_site_fract_z
 _atom_site_occupancy
 _atom_site_charge
Fe  Fe1  1  0.00000000  0.00000000  0.00000000  1.0 0.696632163
Fe  Fe2  1  0.50000000  0.50000000  0.00000000  1.0 0.696632163
H  H1  1  0.18190000  0.55000000  0.73190000  1.0 0.1195350525
H  H2  1  0.81810000  0.45000000  0.26810000  1.0 0.1195350525
H  H3  1  0.55000000  0.81810000  0.36810000  1.0 0.1195350525
H  H4  1  0.45000000  0.18190000  0.63190000  1.0 0.1195350525
H  H5  1  0.68190000  0.95000000  0.63190000  1.0 0.1195350525
H  H6  1  0.31810000  0.05000000  0.36810000  1.0 0.1195350525
H  H7  1  0.05000000  0.68190000  0.73190000  1.0 0.1195350525
H  H8  1  0.95000000  0.31810000  0.26810000  1.0 0.1195350525
H  H9  1  0.74220000  0.85630000  0.80790000  1.0 0.1042636348
H  H10  1  0.04840000  0.93430000  0.19210000  1.0 0.1042636348
H  H11  1  0.85630000  0.04840000  0.11410000  1.0 0.1042636348
H  H12  1  0.93430000  0.74220000  0.88590000  1.0 0.1042636348
H  H13  1  0.45160000  0.64370000  0.88590000  1.0 0.1042636348
H  H14  1  0.75780000  0.56570000  0.11410000  1.0 0.1042636348
H  H15  1  0.56570000  0.45160000  0.80790000  1.0 0.1042636348
H  H16  1  0.64370000  0.75780000  0.19210000  1.0 0.1042636348
H  H17  1  0.25780000  0.14370000  0.19210000  1.0 0.1042636348
H  H18  1  0.95160000  0.06570000  0.80790000  1.0 0.1042636348
H  H19  1  0.14370000  0.95160000  0.88590000  1.0 0.1042636348
H  H20  1  0.06570000  0.25780000  0.11410000  1.0 0.1042636348
H  H21  1  0.54840000  0.35630000  0.11410000  1.0 0.1042636348
H  H22  1  0.24220000  0.43430000  0.88590000  1.0 0.1042636348
H  H23  1  0.43430000  0.54840000  0.19210000  1.0 0.1042636348
H  H24  1  0.35630000  0.24220000  0.80790000  1.0 0.1042636348
H  H25  1  0.63700000  0.74970000  0.79710000  1.0 0.0940240951
H  H26  1  0.95260000  0.83990000  0.20290000  1.0 0.0940240951
H  H27  1  0.74970000  0.95260000  0.11270000  1.0 0.0940240951
H  H28  1  0.83990000  0.63700000  0.88730000  1.0 0.0940240951
H  H29  1  0.54740000  0.75030000  0.88730000  1.0 0.0940240951
H  H30  1  0.86300000  0.66010000  0.11270000  1.0 0.0940240951
H  H31  1  0.66010000  0.54740000  0.79710000  1.0 0.0940240951
H  H32  1  0.75030000  0.86300000  0.20290000  1.0 0.0940240951
H  H33  1  0.36300000  0.25030000  0.20290000  1.0 0.0940240951
H  H34  1  0.04740000  0.16010000  0.79710000  1.0 0.0940240951
H  H35  1  0.25030000  0.04740000  0.88730000  1.0 0.0940240951
H  H36  1  0.16010000  0.36300000  0.11270000  1.0 0.0940240951
H  H37  1  0.45260000  0.24970000  0.11270000  1.0 0.0940240951
H  H38  1  0.13700000  0.33990000  0.88730000  1.0 0.0940240951
H  H39  1  0.33990000  0.45260000  0.20290000  1.0 0.0940240951
H  H40  1  0.24970000  0.13700000  0.79710000  1.0 0.0940240951
C  C1  1  0.13560000  0.22590000  0.36150000  1.0 0.2738856872
C  C2  1  0.86440000  0.77410000  0.63850000  1.0 0.2738856872
C  C3  1  0.22590000  0.86440000  0.09030000  1.0 0.2738856872
C  C4  1  0.77410000  0.13560000  0.90970000  1.0 0.2738856872
C  C5  1  0.63560000  0.27410000  0.90970000  1.0 0.2738856872
C  C6  1  0.36440000  0.72590000  0.09030000  1.0 0.2738856872
C  C7  1  0.72590000  0.63560000  0.36150000  1.0 0.2738856872
C  C8  1  0.27410000  0.36440000  0.63850000  1.0 0.2738856872
C  C9  1  0.16550000  0.33450000  0.50000000  1.0 -0.1975451583
C  C10  1  0.83450000  0.66550000  0.50000000  1.0 -0.1975451583
C  C11  1  0.33450000  0.83450000  0.16900000  1.0 -0.1975451583
C  C12  1  0.66550000  0.16550000  0.83100000  1.0 -0.1975451583
C  C13  1  0.08130000  0.41870000  0.50000000  1.0 0.105355264
C  C14  1  0.91870000  0.58130000  0.50000000  1.0 0.105355264
C  C15  1  0.41870000  0.91870000  0.33740000  1.0 0.105355264
C  C16  1  0.58130000  0.08130000  0.66260000  1.0 0.105355264
C  C17  1  0.10780000  0.52910000  0.63690000  1.0 -0.1650451111
C  C18  1  0.89220000  0.47090000  0.36310000  1.0 -0.1650451111
C  C19  1  0.52910000  0.89220000  0.42130000  1.0 -0.1650451111
C  C20  1  0.47090000  0.10780000  0.57870000  1.0 -0.1650451111
C  C21  1  0.60780000  0.97090000  0.57870000  1.0 -0.1638886618
C  C22  1  0.39220000  0.02910000  0.42130000  1.0 -0.1650451111
C  C23  1  0.02910000  0.60780000  0.63690000  1.0 -0.1650451111
C  C24  1  0.97090000  0.39220000  0.36310000  1.0 -0.1650451111
C  C25  1  0.78540000  0.85090000  0.88790000  1.0 0.0033013449
C  C26  1  0.96300000  0.89750000  0.11210000  1.0 0.0033013449
C  C27  1  0.85090000  0.96300000  0.06550000  1.0 0.0033013449
C  C28  1  0.89750000  0.78540000  0.93450000  1.0 0.0033013449
C  C29  1  0.53700000  0.64910000  0.93450000  1.0 0.0033013449
C  C30  1  0.71460000  0.60250000  0.06550000  1.0 0.0033013449
C  C31  1  0.60250000  0.53700000  0.88790000  1.0 0.0033013449
C  C32  1  0.64910000  0.71460000  0.11210000  1.0 0.0033013449
C  C33  1  0.21460000  0.14910000  0.11210000  1.0 0.0033013449
C  C34  1  0.03700000  0.10250000  0.88790000  1.0 0.0033013449
C  C35  1  0.14910000  0.03700000  0.93450000  1.0 0.0033013449
C  C36  1  0.10250000  0.21460000  0.06550000  1.0 0.0033013449
C  C37  1  0.46300000  0.35090000  0.06550000  1.0 0.0033013449
C  C38  1  0.28540000  0.39750000  0.93450000  1.0 0.0033013449
C  C39  1  0.39750000  0.46300000  0.11210000  1.0 0.0033013449
C  C40  1  0.35090000  0.28540000  0.88790000  1.0 0.0033013449
C  C41  1  0.72160000  0.78840000  0.88140000  1.0 -0.116107916
C  C42  1  0.90700000  0.84020000  0.11860000  1.0 -0.1148963632
C  C43  1  0.78840000  0.90700000  0.06680000  1.0 -0.1148963632
C  C44  1  0.84020000  0.72160000  0.93320000  1.0 -0.1148963632
C  C45  1  0.59300000  0.71160000  0.93320000  1.0 -0.1148963632
C  C46  1  0.77840000  0.65980000  0.06680000  1.0 -0.116107916
C  C47  1  0.65980000  0.59300000  0.88140000  1.0 -0.1148963632
C  C48  1  0.71160000  0.77840000  0.11860000  1.0 -0.116107916
C  C49  1  0.27840000  0.21160000  0.11860000  1.0 -0.116107916
C  C50  1  0.09300000  0.15980000  0.88140000  1.0 -0.1148963632
C  C51  1  0.21160000  0.09300000  0.93320000  1.0 -0.116107916
C  C52  1  0.15980000  0.27840000  0.06680000  1.0 -0.1148963632
C  C53  1  0.40700000  0.28840000  0.06680000  1.0 -0.1148963632
C  C54  1  0.22160000  0.34020000  0.93320000  1.0 -0.116107916
C  C55  1  0.34020000  0.40700000  0.11860000  1.0 -0.1148963632
C  C56  1  0.28840000  0.22160000  0.88140000  1.0 -0.116107916
C  C57  1  0.78240000  0.78240000  0.00000000  1.0 0.0423724664
C  C58  1  0.71760000  0.71760000  0.00000000  1.0 0.0423724664
C  C59  1  0.21760000  0.21760000  0.00000000  1.0 0.0423724664
C  C60  1  0.28240000  0.28240000  0.00000000  1.0 0.0423724664
N  N1  1  0.10230000  0.13880000  0.24110000  1.0 -0.4601233067
N  N2  1  0.89770000  0.86120000  0.75890000  1.0 -0.4601233067
N  N3  1  0.13880000  0.89770000  0.03650000  1.0 -0.4601233067
N  N4  1  0.86120000  0.10230000  0.96350000  1.0 -0.4601233067
N  N5  1  0.60230000  0.36120000  0.96350000  1.0 -0.4601233067
N  N6  1  0.39770000  0.63880000  0.03650000  1.0 -0.4601233067
N  N7  1  0.63880000  0.60230000  0.24110000  1.0 -0.4601233067
N  N8  1  0.36120000  0.39770000  0.75890000  1.0 -0.4601233067
N  N9  1  0.90410000  0.90410000  0.00000000  1.0 -0.1799430387
N  N10  1  0.59590000  0.59590000  0.00000000  1.0 -0.1799430387
N  N11  1  0.09590000  0.09590000  0.00000000  1.0 -0.1799430387
N  N12  1  0.40410000  0.40410000  0.00000000  1.0 -0.1799430387
