# DDEC6 charges by PACMAN v1.1 (https://github.com/mtap-research/PACMAN-charge/)
data_ZUQNAD_ASR_pacman
_symmetry_space_group_name_H-M   'P 1'
_cell_length_a   17.78400000
_cell_length_b   17.78400000
_cell_length_c   12.50900000
_cell_angle_alpha   90.00000000
_cell_angle_beta   90.00000000
_cell_angle_gamma   120.00000000
_symmetry_Int_Tables_number   1
_chemical_formula_structural   CaCu6H6C24(NO5)6
_chemical_formula_sum   'Ca2 Cu12 H12 C48 N12 O60'
_cell_volume   3426.19536790
_cell_formula_units_Z   2
loop_
 _symmetry_equiv_pos_site_id
 _symmetry_equiv_pos_as_xyz
  1  'x, y, z'
loop_
 _atom_site_type_symbol
 _atom_site_label
 _atom_site_symmetry_multiplicity
 _atom_site_fract_x
 _atom_site_fract_y
 _atom_site_fract_z
 _atom_site_occupancy
 _atom_site_charge
Ca  Ca1  1  0.33333333  0.66666667  0.12000000  1.0 1.396890883
Ca  Ca2  1  0.66666667  0.33333333  0.62000000  1.0 1.396890883
Cu  Cu1  1  0.13818000  0.57998000  0.24974000  1.0 0.883611286
Cu  Cu2  1  0.13896000  0.58554000  0.98699000  1.0 0.883611286
Cu  Cu3  1  0.42002000  0.55820000  0.24974000  1.0 0.8854285522
Cu  Cu4  1  0.41446000  0.55342000  0.98699000  1.0 0.883611286
Cu  Cu5  1  0.44180000  0.86182000  0.24974000  1.0 0.8854285522
Cu  Cu6  1  0.44658000  0.86104000  0.98699000  1.0 0.883611286
Cu  Cu7  1  0.86182000  0.42002000  0.74974000  1.0 0.883611286
Cu  Cu8  1  0.86104000  0.41446000  0.48699000  1.0 0.883611286
Cu  Cu9  1  0.57998000  0.44180000  0.74974000  1.0 0.8854285522
Cu  Cu10  1  0.58554000  0.44658000  0.48699000  1.0 0.883611286
Cu  Cu11  1  0.55820000  0.13818000  0.74974000  1.0 0.883611286
Cu  Cu12  1  0.55342000  0.13896000  0.48699000  1.0 0.883611286
H  H1  1  0.87520000  0.58824000  0.33160000  1.0 0.1617352708
H  H2  1  0.16716000  0.47916000  0.47613000  1.0 0.1508714675
H  H3  1  0.41176000  0.28696000  0.33160000  1.0 0.1617352708
H  H4  1  0.52084000  0.68800000  0.47613000  1.0 0.1508714675
H  H5  1  0.71304000  0.12480000  0.33160000  1.0 0.1617352708
H  H6  1  0.31200000  0.83284000  0.47613000  1.0 0.1508714675
H  H7  1  0.12480000  0.41176000  0.83160000  1.0 0.1617352708
H  H8  1  0.83284000  0.52084000  0.97613000  1.0 0.1508714675
H  H9  1  0.58824000  0.71304000  0.83160000  1.0 0.1617352708
H  H10  1  0.47916000  0.31200000  0.97613000  1.0 0.1508714675
H  H11  1  0.28696000  0.87520000  0.83160000  1.0 0.1617352708
H  H12  1  0.68800000  0.16716000  0.97613000  1.0 0.1508714675
C  C1  1  0.97880000  0.51870000  0.33730000  1.0 0.3985986952
C  C2  1  0.02080000  0.47600000  0.39990000  1.0 0.3985986952
C  C3  1  0.84410000  0.52330000  0.32990000  1.0 -0.1257118837
C  C4  1  0.76780000  0.48780000  0.40110000  1.0 0.6008752628
C  C5  1  0.15260000  0.46450000  0.39890000  1.0 -0.1010444022
C  C6  1  0.23800000  0.51320000  0.32880000  1.0 0.6335154815
C  C7  1  0.11070000  0.36470000  0.38240000  1.0 0.4524326368
C  C8  1  0.81200000  0.49020000  0.21340000  1.0 0.4307022833
C  C9  1  0.48130000  0.46010000  0.33730000  1.0 0.3985986952
C  C10  1  0.52400000  0.54480000  0.39990000  1.0 0.3985986952
C  C11  1  0.47670000  0.32080000  0.32990000  1.0 -0.1257118837
C  C12  1  0.51220000  0.28000000  0.40110000  1.0 0.6008752628
C  C13  1  0.53550000  0.68810000  0.39890000  1.0 -0.1010444022
C  C14  1  0.48680000  0.72480000  0.32880000  1.0 0.6335154815
C  C15  1  0.63530000  0.74600000  0.38240000  1.0 0.4524326368
C  C16  1  0.50980000  0.32180000  0.21340000  1.0 0.4307022833
C  C17  1  0.53990000  0.02120000  0.33730000  1.0 0.3985986952
C  C18  1  0.45520000  0.97920000  0.39990000  1.0 0.3985986952
C  C19  1  0.67920000  0.15590000  0.32990000  1.0 -0.1257118837
C  C20  1  0.72000000  0.23220000  0.40110000  1.0 0.6008752628
C  C21  1  0.31190000  0.84740000  0.39890000  1.0 -0.1010444022
C  C22  1  0.27520000  0.76200000  0.32880000  1.0 0.6335154815
C  C23  1  0.25400000  0.88930000  0.38240000  1.0 0.4524326368
C  C24  1  0.67820000  0.18800000  0.21340000  1.0 0.4307022833
C  C25  1  0.02120000  0.48130000  0.83730000  1.0 0.3985986952
C  C26  1  0.97920000  0.52400000  0.89990000  1.0 0.3985986952
C  C27  1  0.15590000  0.47670000  0.82990000  1.0 -0.1257118837
C  C28  1  0.23220000  0.51220000  0.90110000  1.0 0.6008752628
C  C29  1  0.84740000  0.53550000  0.89890000  1.0 -0.1010444022
C  C30  1  0.76200000  0.48680000  0.82880000  1.0 0.6335154815
C  C31  1  0.88930000  0.63530000  0.88240000  1.0 0.4524326368
C  C32  1  0.18800000  0.50980000  0.71340000  1.0 0.4307022833
C  C33  1  0.51870000  0.53990000  0.83730000  1.0 0.3985986952
C  C34  1  0.47600000  0.45520000  0.89990000  1.0 0.3985986952
C  C35  1  0.52330000  0.67920000  0.82990000  1.0 -0.1249283732
C  C36  1  0.48780000  0.72000000  0.90110000  1.0 0.6008752628
C  C37  1  0.46450000  0.31190000  0.89890000  1.0 -0.1010444022
C  C38  1  0.51320000  0.27520000  0.82880000  1.0 0.6335154815
C  C39  1  0.36470000  0.25400000  0.88240000  1.0 0.4524326368
C  C40  1  0.49020000  0.67820000  0.71340000  1.0 0.4307022833
C  C41  1  0.46010000  0.97880000  0.83730000  1.0 0.3985986952
C  C42  1  0.54480000  0.02080000  0.89990000  1.0 0.3985986952
C  C43  1  0.32080000  0.84410000  0.82990000  1.0 -0.1257118837
C  C44  1  0.28000000  0.76780000  0.90110000  1.0 0.6008752628
C  C45  1  0.68810000  0.15260000  0.89890000  1.0 -0.1010444022
C  C46  1  0.72480000  0.23800000  0.82880000  1.0 0.6335154815
C  C47  1  0.74600000  0.11070000  0.88240000  1.0 0.4524326368
C  C48  1  0.32180000  0.81200000  0.71340000  1.0 0.4307022833
N  N1  1  0.09670000  0.49710000  0.36240000  1.0 -0.3732125617
N  N2  1  0.90090000  0.49250000  0.36820000  1.0 -0.3835782217
N  N3  1  0.50290000  0.59960000  0.36240000  1.0 -0.3732125617
N  N4  1  0.50750000  0.40840000  0.36820000  1.0 -0.3835782217
N  N5  1  0.40040000  0.90330000  0.36240000  1.0 -0.3732125617
N  N6  1  0.59160000  0.09910000  0.36820000  1.0 -0.3835782217
N  N7  1  0.90330000  0.50290000  0.86240000  1.0 -0.3732125617
N  N8  1  0.09910000  0.50750000  0.86820000  1.0 -0.3835782217
N  N9  1  0.49710000  0.40040000  0.86240000  1.0 -0.3732125617
N  N10  1  0.49250000  0.59160000  0.86820000  1.0 -0.3835782217
N  N11  1  0.59960000  0.09670000  0.86240000  1.0 -0.3732125617
N  N12  1  0.40840000  0.90090000  0.86820000  1.0 -0.3835782217
O  O1  1  0.17980000  0.64380000  0.11960000  1.0 -0.7648950176
O  O2  1  0.02110000  0.57110000  0.26270000  1.0 -0.408652182
O  O3  1  0.23910000  0.56180000  0.25500000  1.0 -0.5008073207
O  O4  1  0.29800000  0.49810000  0.35270000  1.0 -0.5111697372
O  O5  1  0.97830000  0.42270000  0.47420000  1.0 -0.408652182
O  O6  1  0.71200000  0.50900000  0.38750000  1.0 -0.4709329442
O  O7  1  0.76140000  0.43670000  0.47790000  1.0 -0.5008073207
O  O8  1  0.08580000  0.33550000  0.27660000  1.0 -0.4709329442
O  O9  1  0.77730000  0.40580000  0.19390000  1.0 -0.2317934912
O  O10  1  0.85900000  0.48400000  0.12500000  1.0 -0.2113950448
O  O11  1  0.35620000  0.53600000  0.11960000  1.0 -0.7682947026
O  O12  1  0.42890000  0.45000000  0.26270000  1.0 -0.408652182
O  O13  1  0.43820000  0.67730000  0.25500000  1.0 -0.5008073207
O  O14  1  0.50190000  0.79990000  0.35270000  1.0 -0.5111697372
O  O15  1  0.57730000  0.55560000  0.47420000  1.0 -0.408652182
O  O16  1  0.49100000  0.20300000  0.38750000  1.0 -0.4709329442
O  O17  1  0.56330000  0.32470000  0.47790000  1.0 -0.5008073207
O  O18  1  0.66450000  0.75030000  0.27660000  1.0 -0.4709329442
O  O19  1  0.59420000  0.37150000  0.19390000  1.0 -0.2317934912
O  O20  1  0.51600000  0.37500000  0.12500000  1.0 -0.2113950448
O  O21  1  0.46400000  0.82020000  0.11960000  1.0 -0.7648950176
O  O22  1  0.55000000  0.97890000  0.26270000  1.0 -0.408652182
O  O23  1  0.32270000  0.76090000  0.25500000  1.0 -0.5008073207
O  O24  1  0.20010000  0.70200000  0.35270000  1.0 -0.5111697372
O  O25  1  0.44440000  0.02170000  0.47420000  1.0 -0.408652182
O  O26  1  0.79700000  0.28800000  0.38750000  1.0 -0.4709329442
O  O27  1  0.67530000  0.23860000  0.47790000  1.0 -0.5008073207
O  O28  1  0.24970000  0.91420000  0.27660000  1.0 -0.4709329442
O  O29  1  0.62850000  0.22270000  0.19390000  1.0 -0.2317934912
O  O30  1  0.62500000  0.14100000  0.12500000  1.0 -0.2045815395
O  O31  1  0.82020000  0.35620000  0.61960000  1.0 -0.7682947026
O  O32  1  0.97890000  0.42890000  0.76270000  1.0 -0.408652182
O  O33  1  0.76090000  0.43820000  0.75500000  1.0 -0.5008073207
O  O34  1  0.70200000  0.50190000  0.85270000  1.0 -0.5111697372
O  O35  1  0.02170000  0.57730000  0.97420000  1.0 -0.408652182
O  O36  1  0.28800000  0.49100000  0.88750000  1.0 -0.4709329442
O  O37  1  0.23860000  0.56330000  0.97790000  1.0 -0.5008073207
O  O38  1  0.91420000  0.66450000  0.77660000  1.0 -0.4604501979
O  O39  1  0.22270000  0.59420000  0.69390000  1.0 -0.2317934912
O  O40  1  0.14100000  0.51600000  0.62500000  1.0 -0.2113950448
O  O41  1  0.64380000  0.46400000  0.61960000  1.0 -0.7682947026
O  O42  1  0.57110000  0.55000000  0.76270000  1.0 -0.408652182
O  O43  1  0.56180000  0.32270000  0.75500000  1.0 -0.5008073207
O  O44  1  0.49810000  0.20010000  0.85270000  1.0 -0.5111697372
O  O45  1  0.42270000  0.44440000  0.97420000  1.0 -0.408652182
O  O46  1  0.50900000  0.79700000  0.88750000  1.0 -0.4709329442
O  O47  1  0.43670000  0.67530000  0.97790000  1.0 -0.5008073207
O  O48  1  0.33550000  0.24970000  0.77660000  1.0 -0.4604501979
O  O49  1  0.40580000  0.62850000  0.69390000  1.0 -0.2317934912
O  O50  1  0.48400000  0.62500000  0.62500000  1.0 -0.2113950448
O  O51  1  0.53600000  0.17980000  0.61960000  1.0 -0.7682947026
O  O52  1  0.45000000  0.02110000  0.76270000  1.0 -0.408652182
O  O53  1  0.67730000  0.23910000  0.75500000  1.0 -0.5008073207
O  O54  1  0.79990000  0.29800000  0.85270000  1.0 -0.5111697372
O  O55  1  0.55560000  0.97830000  0.97420000  1.0 -0.408652182
O  O56  1  0.20300000  0.71200000  0.88750000  1.0 -0.4709329442
O  O57  1  0.32470000  0.76140000  0.97790000  1.0 -0.5008073207
O  O58  1  0.75030000  0.08580000  0.77660000  1.0 -0.4709329442
O  O59  1  0.37150000  0.77730000  0.69390000  1.0 -0.2317934912
O  O60  1  0.37500000  0.85900000  0.62500000  1.0 -0.2113950448
