# DDEC6 charges by PACMAN v1.1 (https://github.com/mtap-research/PACMAN-charge/)
data_ZUTBAR03_FSR_pacman
_symmetry_space_group_name_H-M   'P 1'
_cell_length_a   6.45050000
_cell_length_b   6.45050000
_cell_length_c   6.45050000
_cell_angle_alpha   90.00000000
_cell_angle_beta   90.00000000
_cell_angle_gamma   90.00000000
_symmetry_Int_Tables_number   1
_chemical_formula_structural   MnN27
_chemical_formula_sum   'Mn1 N27'
_cell_volume   268.39853359
_cell_formula_units_Z   1
loop_
 _symmetry_equiv_pos_site_id
 _symmetry_equiv_pos_as_xyz
  1  'x, y, z'
loop_
 _atom_site_type_symbol
 _atom_site_label
 _atom_site_symmetry_multiplicity
 _atom_site_fract_x
 _atom_site_fract_y
 _atom_site_fract_z
 _atom_site_occupancy
 _atom_site_charge
Mn  Mn1  1  0.00000000  0.00000000  0.00000000  1.0 0.1029717
N  N1  1  0.50000000  0.00000000  0.00000000  1.0 0.2156587612
N  N2  1  0.00000000  0.50000000  0.00000000  1.0 0.2156587612
N  N3  1  0.00000000  0.00000000  0.50000000  1.0 0.2156587612
N  N4  1  0.33530000  0.00000000  0.07060000  1.0 -0.0312478326
N  N5  1  0.00000000  0.33530000  0.07060000  1.0 -0.0312478326
N  N6  1  0.66470000  0.00000000  0.07060000  1.0 -0.0312478326
N  N7  1  0.00000000  0.66470000  0.07060000  1.0 -0.0312478326
N  N8  1  0.33530000  0.92940000  0.00000000  1.0 -0.0312478326
N  N9  1  0.33530000  0.00000000  0.92940000  1.0 -0.0312478326
N  N10  1  0.33530000  0.07060000  0.00000000  1.0 -0.0312478326
N  N11  1  0.07060000  0.00000000  0.66470000  1.0 -0.0312478326
N  N12  1  0.66470000  0.00000000  0.92940000  1.0 -0.0312478326
N  N13  1  0.92940000  0.00000000  0.33530000  1.0 -0.0312478326
N  N14  1  0.07060000  0.33530000  0.00000000  1.0 -0.0312478326
N  N15  1  0.00000000  0.07060000  0.33530000  1.0 -0.0312478326
N  N16  1  0.00000000  0.92940000  0.33530000  1.0 -0.0312478326
N  N17  1  0.07060000  0.66470000  0.00000000  1.0 -0.0312478326
N  N18  1  0.00000000  0.07060000  0.66470000  1.0 -0.0312478326
N  N19  1  0.92940000  0.66470000  0.00000000  1.0 -0.0312478326
N  N20  1  0.92940000  0.33530000  0.00000000  1.0 -0.0312478326
N  N21  1  0.00000000  0.92940000  0.66470000  1.0 -0.0312478326
N  N22  1  0.00000000  0.33530000  0.92940000  1.0 -0.0312478326
N  N23  1  0.00000000  0.66470000  0.92940000  1.0 -0.0312478326
N  N24  1  0.66470000  0.07060000  0.00000000  1.0 -0.0312478326
N  N25  1  0.66470000  0.92940000  0.00000000  1.0 -0.0312478326
N  N26  1  0.07060000  0.00000000  0.33530000  1.0 -0.0312478326
N  N27  1  0.92940000  0.00000000  0.66470000  1.0 -0.0312478326
