# DDEC6 charges by PACMAN v1.1 (https://github.com/mtap-research/PACMAN-charge/)
data_ZUVTEP_FSR_pacman
_symmetry_space_group_name_H-M   'P 1'
_cell_length_a   9.50700000
_cell_length_b   9.50700000
_cell_length_c   17.44300000
_cell_angle_alpha   90.00000000
_cell_angle_beta   90.00000000
_cell_angle_gamma   120.00000000
_symmetry_Int_Tables_number   1
_chemical_formula_structural   LaH6(C2O3)3
_chemical_formula_sum   'La4 H24 C24 O36'
_cell_volume   1365.33366991
_cell_formula_units_Z   4
loop_
 _symmetry_equiv_pos_site_id
 _symmetry_equiv_pos_as_xyz
  1  'x, y, z'
loop_
 _atom_site_type_symbol
 _atom_site_label
 _atom_site_symmetry_multiplicity
 _atom_site_fract_x
 _atom_site_fract_y
 _atom_site_fract_z
 _atom_site_occupancy
 _atom_site_charge
La  La1  1  0.66666667  0.33333333  0.25000000  1.0 1.890388099
La  La2  1  0.33333333  0.66666667  0.75000000  1.0 1.890388099
La  La3  1  0.00000000  0.00000000  0.00000000  1.0 1.7177890217
La  La4  1  0.00000000  0.00000000  0.50000000  1.0 1.7177890217
H  H1  1  0.43070000  0.02790000  0.08100000  1.0 0.1453743106
H  H2  1  0.59720000  0.56930000  0.41900000  1.0 0.1453743106
H  H3  1  0.02790000  0.43070000  0.58100000  1.0 0.1453743106
H  H4  1  0.97210000  0.40280000  0.08100000  1.0 0.1453743106
H  H5  1  0.40280000  0.97210000  0.91900000  1.0 0.1453743106
H  H6  1  0.43070000  0.02790000  0.41900000  1.0 0.1453743106
H  H7  1  0.56930000  0.59720000  0.58100000  1.0 0.1453743106
H  H8  1  0.59720000  0.56930000  0.08100000  1.0 0.1453743106
H  H9  1  0.02790000  0.43070000  0.91900000  1.0 0.1453743106
H  H10  1  0.97210000  0.40280000  0.41900000  1.0 0.1453743106
H  H11  1  0.40280000  0.97210000  0.58100000  1.0 0.1453743106
H  H12  1  0.56930000  0.59720000  0.91900000  1.0 0.1453743106
H  H13  1  0.49470000  0.16970000  0.02270000  1.0 0.1362812793
H  H14  1  0.67500000  0.50530000  0.47730000  1.0 0.1362812793
H  H15  1  0.16970000  0.49470000  0.52270000  1.0 0.1362812793
H  H16  1  0.83030000  0.32500000  0.02270000  1.0 0.1362812793
H  H17  1  0.32500000  0.83030000  0.97730000  1.0 0.1362812793
H  H18  1  0.49470000  0.16970000  0.47730000  1.0 0.1362812793
H  H19  1  0.50530000  0.67500000  0.52270000  1.0 0.1362812793
H  H20  1  0.67500000  0.50530000  0.02270000  1.0 0.1362812793
H  H21  1  0.16970000  0.49470000  0.97730000  1.0 0.1362812793
H  H22  1  0.83030000  0.32500000  0.47730000  1.0 0.1362812793
H  H23  1  0.32500000  0.83030000  0.52270000  1.0 0.1362812793
H  H24  1  0.50530000  0.67500000  0.97730000  1.0 0.1362812793
C  C1  1  0.35010000  0.18500000  0.10460000  1.0 0.6368871655
C  C2  1  0.83490000  0.64990000  0.39540000  1.0 0.6368871655
C  C3  1  0.18500000  0.35010000  0.60460000  1.0 0.6368871655
C  C4  1  0.81500000  0.16510000  0.10460000  1.0 0.6368871655
C  C5  1  0.16510000  0.81500000  0.89540000  1.0 0.6368871655
C  C6  1  0.35010000  0.18500000  0.39540000  1.0 0.6368871655
C  C7  1  0.64990000  0.83490000  0.60460000  1.0 0.6368871655
C  C8  1  0.83490000  0.64990000  0.10460000  1.0 0.6368871655
C  C9  1  0.18500000  0.35010000  0.89540000  1.0 0.6368871655
C  C10  1  0.81500000  0.16510000  0.39540000  1.0 0.6368871655
C  C11  1  0.16510000  0.81500000  0.60460000  1.0 0.6368871655
C  C12  1  0.64990000  0.83490000  0.89540000  1.0 0.6368871655
C  C13  1  0.40090000  0.09410000  0.05140000  1.0 -0.1891682938
C  C14  1  0.69320000  0.59910000  0.44860000  1.0 -0.1891682938
C  C15  1  0.09410000  0.40090000  0.55140000  1.0 -0.1891682938
C  C16  1  0.90590000  0.30680000  0.05140000  1.0 -0.1891682938
C  C17  1  0.30680000  0.90590000  0.94860000  1.0 -0.1891682938
C  C18  1  0.40090000  0.09410000  0.44860000  1.0 -0.1891682938
C  C19  1  0.59910000  0.69320000  0.55140000  1.0 -0.1891682938
C  C20  1  0.69320000  0.59910000  0.05140000  1.0 -0.1891682938
C  C21  1  0.09410000  0.40090000  0.94860000  1.0 -0.1891682938
C  C22  1  0.90590000  0.30680000  0.44860000  1.0 -0.1891682938
C  C23  1  0.30680000  0.90590000  0.55140000  1.0 -0.1891682938
C  C24  1  0.59910000  0.69320000  0.94860000  1.0 -0.1891682938
O  O1  1  0.45000000  0.27050000  0.15490000  1.0 -0.5841091597
O  O2  1  0.82050000  0.55000000  0.34510000  1.0 -0.5841091597
O  O3  1  0.27050000  0.45000000  0.65490000  1.0 -0.5841091597
O  O4  1  0.72950000  0.17950000  0.15490000  1.0 -0.5841091597
O  O5  1  0.17950000  0.72950000  0.84510000  1.0 -0.5841091597
O  O6  1  0.45000000  0.27050000  0.34510000  1.0 -0.5841091597
O  O7  1  0.55000000  0.82050000  0.65490000  1.0 -0.5841091597
O  O8  1  0.82050000  0.55000000  0.15490000  1.0 -0.5841091597
O  O9  1  0.27050000  0.45000000  0.84510000  1.0 -0.5841091597
O  O10  1  0.72950000  0.17950000  0.34510000  1.0 -0.5841091597
O  O11  1  0.17950000  0.72950000  0.65490000  1.0 -0.5841091597
O  O12  1  0.55000000  0.82050000  0.84510000  1.0 -0.5841091597
O  O13  1  0.27160000  0.00000000  0.00000000  1.0 -0.204687404
O  O14  1  0.72840000  0.72840000  0.50000000  1.0 -0.2055551731
O  O15  1  0.00000000  0.27160000  0.50000000  1.0 -0.204687404
O  O16  1  0.00000000  0.27160000  0.00000000  1.0 -0.2055551731
O  O17  1  0.27160000  0.00000000  0.50000000  1.0 -0.204687404
O  O18  1  0.72840000  0.72840000  0.00000000  1.0 -0.2055551731
O  O19  1  0.21460000  0.17280000  0.09530000  1.0 -0.5517113531
O  O20  1  0.95820000  0.78540000  0.40470000  1.0 -0.5517113531
O  O21  1  0.17280000  0.21460000  0.59530000  1.0 -0.5517113531
O  O22  1  0.82720000  0.04180000  0.09530000  1.0 -0.5517113531
O  O23  1  0.04180000  0.82720000  0.90470000  1.0 -0.5517113531
O  O24  1  0.21460000  0.17280000  0.40470000  1.0 -0.5517113531
O  O25  1  0.78540000  0.95820000  0.59530000  1.0 -0.5517113531
O  O26  1  0.95820000  0.78540000  0.09530000  1.0 -0.5517113531
O  O27  1  0.17280000  0.21460000  0.90470000  1.0 -0.5517113531
O  O28  1  0.82720000  0.04180000  0.40470000  1.0 -0.5517113531
O  O29  1  0.04180000  0.82720000  0.59530000  1.0 -0.5517113531
O  O30  1  0.78540000  0.95820000  0.90470000  1.0 -0.5517113531
O  O31  1  0.98880000  0.43870000  0.25000000  1.0 -0.1824843274
O  O32  1  0.44990000  0.01120000  0.25000000  1.0 -0.1824843274
O  O33  1  0.43870000  0.98880000  0.75000000  1.0 -0.1891682938
O  O34  1  0.56130000  0.55010000  0.25000000  1.0 -0.1824843274
O  O35  1  0.55010000  0.56130000  0.75000000  1.0 -0.1891682938
O  O36  1  0.01120000  0.44990000  0.75000000  1.0 -0.1824843274
