# DDEC6 charges by PACMAN v1.1 (https://github.com/mtap-research/PACMAN-charge/)
data_ZUYRIX_FSR_pacman
_symmetry_space_group_name_H-M   'P 1'
_cell_length_a   17.71560000
_cell_length_b   17.71560000
_cell_length_c   27.66410000
_cell_angle_alpha   71.65570000
_cell_angle_beta   108.34400000
_cell_angle_gamma   145.03300000
_symmetry_Int_Tables_number   1
_chemical_formula_structural   GdH39C45O8
_chemical_formula_sum   'Gd4 H156 C180 O32'
_cell_volume   4697.10871347
_cell_formula_units_Z   4
loop_
 _symmetry_equiv_pos_site_id
 _symmetry_equiv_pos_as_xyz
  1  'x, y, z'
loop_
 _atom_site_type_symbol
 _atom_site_label
 _atom_site_symmetry_multiplicity
 _atom_site_fract_x
 _atom_site_fract_y
 _atom_site_fract_z
 _atom_site_occupancy
 _atom_site_charge
Gd  Gd1  1  0.04846000  0.15976000  0.48364000  1.0 1.9448799946
Gd  Gd2  1  0.15976000  0.04846000  0.01636000  1.0 1.9448799946
Gd  Gd3  1  0.95154000  0.84024000  0.51636000  1.0 1.9448799946
Gd  Gd4  1  0.84024000  0.95154000  0.98364000  1.0 1.9448799946
H  H1  1  0.04850000  0.25950000  0.55020000  1.0 0.3328532361
H  H2  1  0.24860000  0.43740000  0.43450000  1.0 0.2781345107
H  H3  1  0.79903000  0.97957000  0.57312000  1.0 0.1201502288
H  H4  1  0.64534000  0.90228000  0.61234000  1.0 0.1111983617
H  H5  1  0.49640000  0.56338000  0.66330000  1.0 0.1111983617
H  H6  1  0.65150000  0.64134000  0.62443000  1.0 0.1111983617
H  H7  1  0.43074000  0.76436000  0.61354000  1.0 0.1111983617
H  H8  1  0.19699000  0.54413000  0.72630000  1.0 0.1111983617
H  H9  1  0.44443000  0.56951000  0.72865000  1.0 0.1201502288
H  H10  1  0.27153000  0.72353000  0.56795000  1.0 0.1111983617
H  H11  1  0.17854000  0.77318000  0.52952000  1.0 0.1201502288
H  H12  1  0.10651000  0.72617000  0.66646000  1.0 0.130021745
H  H13  1  0.20291000  0.68017000  0.70529000  1.0 0.1201502288
H  H14  1  0.08125000  0.35149000  0.77283000  1.0 0.1201502288
H  H15  1  0.01265000  0.22339000  0.85033000  1.0 0.1354149141
H  H16  1  0.36620000  0.39860000  0.89130000  1.0 0.1111983617
H  H17  1  0.43821000  0.53269000  0.81480000  1.0 0.1111983617
H  H18  1  0.03185000  0.14365000  0.62212000  1.0 0.0812777098
H  H19  1  0.18284000  0.25136000  0.61956000  1.0 0.0898995023
H  H20  1  0.23023000  0.41909000  0.62259000  1.0 0.1201502288
H  H21  1  0.16340000  0.31640000  0.67134000  1.0 0.130021745
H  H22  1  0.13680000  0.46920000  0.57409000  1.0 0.1201502288
H  H23  1  0.96982000  0.42906000  0.55390000  1.0 0.1111983617
H  H24  1  0.77275000  0.24059000  0.58737000  1.0 0.1201502288
H  H25  1  0.74660000  0.09540000  0.64600000  1.0 0.1201502288
H  H26  1  0.90666000  0.12854000  0.66444000  1.0 0.130021745
H  H27  1  0.63797000  0.84591000  0.47253000  1.0 0.130021745
H  H28  1  0.63574000  0.97752000  0.46231000  1.0 0.1201502288
H  H29  1  0.45473000  0.89053000  0.47633000  1.0 0.1111983617
H  H30  1  0.26741000  0.66666667  0.49909000  1.0 0.0993637972
H  H31  1  0.26793000  0.53375000  0.51038000  1.0 0.1111983617
H  H32  1  0.38450000  0.43484000  0.48220000  1.0 0.0532917686
H  H33  1  0.41497000  0.53835000  0.43897000  1.0 0.0812777098
H  H34  1  0.38737000  0.51159000  0.53948000  1.0 0.0812777098
H  H35  1  0.52595000  0.61633000  0.52140000  1.0 0.0812777098
H  H36  1  0.34523000  0.46705000  0.53374000  1.0 0.0812777098
H  H37  1  0.38845000  0.44218000  0.50665000  1.0 0.0586939154
H  H38  1  0.48000000  0.63802000  0.44411000  1.0 0.0898995023
H  H39  1  0.56470000  0.67092000  0.49773000  1.0 0.0898995023
H  H40  1  0.25950000  0.04850000  0.94980000  1.0 0.3328532361
H  H41  1  0.43740000  0.24860000  0.06550000  1.0 0.2781345107
H  H42  1  0.97957000  0.79903000  0.92688000  1.0 0.1201502288
H  H43  1  0.90228000  0.64534000  0.88766000  1.0 0.1111983617
H  H44  1  0.56338000  0.49640000  0.83670000  1.0 0.1111983617
H  H45  1  0.64134000  0.65150000  0.87557000  1.0 0.1111983617
H  H46  1  0.76436000  0.43074000  0.88646000  1.0 0.1111983617
H  H47  1  0.54413000  0.19699000  0.77370000  1.0 0.1111983617
H  H48  1  0.56951000  0.44443000  0.77135000  1.0 0.1201502288
H  H49  1  0.72353000  0.27153000  0.93205000  1.0 0.1111983617
H  H50  1  0.77318000  0.17854000  0.97048000  1.0 0.1201502288
H  H51  1  0.72617000  0.10651000  0.83354000  1.0 0.130021745
H  H52  1  0.68017000  0.20291000  0.79471000  1.0 0.1201502288
H  H53  1  0.35149000  0.08125000  0.72717000  1.0 0.1201502288
H  H54  1  0.22339000  0.01265000  0.64967000  1.0 0.1354149141
H  H55  1  0.39860000  0.36620000  0.60870000  1.0 0.1111983617
H  H56  1  0.53269000  0.43821000  0.68520000  1.0 0.1111983617
H  H57  1  0.14365000  0.03185000  0.87788000  1.0 0.0812777098
H  H58  1  0.25136000  0.18284000  0.88044000  1.0 0.0898995023
H  H59  1  0.41909000  0.23023000  0.87741000  1.0 0.1201502288
H  H60  1  0.31640000  0.16340000  0.82866000  1.0 0.130021745
H  H61  1  0.46920000  0.13680000  0.92591000  1.0 0.1201502288
H  H62  1  0.42906000  0.96982000  0.94610000  1.0 0.1111983617
H  H63  1  0.24059000  0.77275000  0.91263000  1.0 0.1201502288
H  H64  1  0.09540000  0.74660000  0.85400000  1.0 0.1201502288
H  H65  1  0.12854000  0.90666000  0.83556000  1.0 0.130021745
H  H66  1  0.84591000  0.63797000  0.02747000  1.0 0.130021745
H  H67  1  0.97752000  0.63574000  0.03769000  1.0 0.1201502288
H  H68  1  0.89053000  0.45473000  0.02367000  1.0 0.1111983617
H  H69  1  0.66666667  0.26741000  0.00091000  1.0 0.0993637972
H  H70  1  0.53375000  0.26793000  0.98962000  1.0 0.1111983617
H  H71  1  0.43484000  0.38450000  0.01780000  1.0 0.0532917686
H  H72  1  0.53835000  0.41497000  0.06103000  1.0 0.0812777098
H  H73  1  0.51159000  0.38737000  0.96052000  1.0 0.0812777098
H  H74  1  0.61633000  0.52595000  0.97860000  1.0 0.0812777098
H  H75  1  0.46705000  0.34523000  0.96626000  1.0 0.0812777098
H  H76  1  0.44218000  0.38846000  0.99335000  1.0 0.0586939154
H  H77  1  0.63802000  0.48000000  0.05589000  1.0 0.0898995023
H  H78  1  0.67092000  0.56470000  0.00227000  1.0 0.0898995023
H  H79  1  0.95150000  0.74050000  0.44980000  1.0 0.3328532361
H  H80  1  0.75140000  0.56260000  0.56550000  1.0 0.2781345107
H  H81  1  0.20097000  0.02043000  0.42688000  1.0 0.1201502288
H  H82  1  0.35466000  0.09772000  0.38766000  1.0 0.1111983617
H  H83  1  0.50360000  0.43662000  0.33670000  1.0 0.1111983617
H  H84  1  0.34850000  0.35866000  0.37557000  1.0 0.1111983617
H  H85  1  0.56926000  0.23564000  0.38646000  1.0 0.1111983617
H  H86  1  0.80301000  0.45587000  0.27370000  1.0 0.1111983617
H  H87  1  0.55557000  0.43049000  0.27135000  1.0 0.1201502288
H  H88  1  0.72847000  0.27647000  0.43205000  1.0 0.1111983617
H  H89  1  0.82146000  0.22682000  0.47048000  1.0 0.1201502288
H  H90  1  0.89349000  0.27383000  0.33354000  1.0 0.130021745
H  H91  1  0.79709000  0.31983000  0.29471000  1.0 0.1201502288
H  H92  1  0.91875000  0.64851000  0.22717000  1.0 0.1201502288
H  H93  1  0.98735000  0.77661000  0.14967000  1.0 0.1354149141
H  H94  1  0.63380000  0.60140000  0.10870000  1.0 0.1111983617
H  H95  1  0.56179000  0.46731000  0.18520000  1.0 0.1111983617
H  H96  1  0.96815000  0.85635000  0.37788000  1.0 0.0812777098
H  H97  1  0.81716000  0.74864000  0.38044000  1.0 0.0898995023
H  H98  1  0.76977000  0.58091000  0.37741000  1.0 0.1201502288
H  H99  1  0.83660000  0.68360000  0.32866000  1.0 0.130021745
H  H100  1  0.86320000  0.53080000  0.42591000  1.0 0.1201502288
H  H101  1  0.03018000  0.57094000  0.44610000  1.0 0.1111983617
H  H102  1  0.22725000  0.75941000  0.41263000  1.0 0.1201502288
H  H103  1  0.25340000  0.90460000  0.35400000  1.0 0.1201502288
H  H104  1  0.09334000  0.87146000  0.33556000  1.0 0.130021745
H  H105  1  0.36203000  0.15409000  0.52747000  1.0 0.130021745
H  H106  1  0.36426000  0.02248000  0.53769000  1.0 0.1201502288
H  H107  1  0.54527000  0.10947000  0.52367000  1.0 0.1111983617
H  H108  1  0.73259000  0.33337000  0.50091000  1.0 0.0993637972
H  H109  1  0.73207000  0.46625000  0.48962000  1.0 0.1111983617
H  H110  1  0.61550000  0.56516000  0.51780000  1.0 0.0532917686
H  H111  1  0.58503000  0.46165000  0.56103000  1.0 0.0812777098
H  H112  1  0.61263000  0.48841000  0.46052000  1.0 0.0812777098
H  H113  1  0.47405000  0.38367000  0.47860000  1.0 0.0812777098
H  H114  1  0.65477000  0.53295000  0.46626000  1.0 0.0812777098
H  H115  1  0.61154000  0.55781000  0.49335000  1.0 0.0586939154
H  H116  1  0.52000000  0.36198000  0.55589000  1.0 0.0898995023
H  H117  1  0.43530000  0.32908000  0.50227000  1.0 0.0898995023
H  H118  1  0.74050000  0.95150000  0.05020000  1.0 0.3328532361
H  H119  1  0.56260000  0.75140000  0.93450000  1.0 0.2781345107
H  H120  1  0.02043000  0.20097000  0.07312000  1.0 0.1201502288
H  H121  1  0.09772000  0.35466000  0.11234000  1.0 0.1111983617
H  H122  1  0.43662000  0.50360000  0.16330000  1.0 0.1111983617
H  H123  1  0.35866000  0.34850000  0.12443000  1.0 0.1111983617
H  H124  1  0.23564000  0.56926000  0.11354000  1.0 0.1111983617
H  H125  1  0.45587000  0.80301000  0.22630000  1.0 0.1111983617
H  H126  1  0.43049000  0.55557000  0.22865000  1.0 0.1201502288
H  H127  1  0.27647000  0.72847000  0.06795000  1.0 0.1111983617
H  H128  1  0.22682000  0.82146000  0.02952000  1.0 0.1201502288
H  H129  1  0.27383000  0.89349000  0.16646000  1.0 0.130021745
H  H130  1  0.31983000  0.79709000  0.20529000  1.0 0.1201502288
H  H131  1  0.64851000  0.91875000  0.27283000  1.0 0.1201502288
H  H132  1  0.77661000  0.98735000  0.35033000  1.0 0.1354149141
H  H133  1  0.60140000  0.63380000  0.39130000  1.0 0.1111983617
H  H134  1  0.46731000  0.56179000  0.31480000  1.0 0.1111983617
H  H135  1  0.85635000  0.96815000  0.12212000  1.0 0.0812777098
H  H136  1  0.74864000  0.81716000  0.11956000  1.0 0.0898995023
H  H137  1  0.58091000  0.76977000  0.12259000  1.0 0.1201502288
H  H138  1  0.68360000  0.83660000  0.17134000  1.0 0.130021745
H  H139  1  0.53080000  0.86320000  0.07409000  1.0 0.1201502288
H  H140  1  0.57094000  0.03018000  0.05390000  1.0 0.1111983617
H  H141  1  0.75941000  0.22725000  0.08737000  1.0 0.1201502288
H  H142  1  0.90460000  0.25340000  0.14600000  1.0 0.1201502288
H  H143  1  0.87146000  0.09334000  0.16444000  1.0 0.130021745
H  H144  1  0.15409000  0.36203000  0.97253000  1.0 0.130021745
H  H145  1  0.02248000  0.36426000  0.96231000  1.0 0.1201502288
H  H146  1  0.10947000  0.54527000  0.97633000  1.0 0.1111983617
H  H147  1  0.33337000  0.73259000  0.99909000  1.0 0.0993637972
H  H148  1  0.46625000  0.73207000  0.01038000  1.0 0.1111983617
H  H149  1  0.56516000  0.61550000  0.98220000  1.0 0.0532917686
H  H150  1  0.46165000  0.58503000  0.93897000  1.0 0.0812777098
H  H151  1  0.48841000  0.61263000  0.03948000  1.0 0.0812777098
H  H152  1  0.38367000  0.47405000  0.02140000  1.0 0.0812777098
H  H153  1  0.53295000  0.65477000  0.03374000  1.0 0.0812777098
H  H154  1  0.55781000  0.61155000  0.00665000  1.0 0.0586939154
H  H155  1  0.36198000  0.52000000  0.94411000  1.0 0.0898995023
H  H156  1  0.32908000  0.43530000  0.99773000  1.0 0.0898995023
C  C1  1  0.84036000  0.86764000  0.56850000  1.0 0.618686811
C  C2  1  0.74231000  0.81909000  0.59513000  1.0 -0.0288468582
C  C3  1  0.73883000  0.89617000  0.59148000  1.0 -0.0922088466
C  C4  1  0.64623000  0.84937000  0.61496000  1.0 -0.1498100774
C  C5  1  0.55415000  0.72465000  0.64252000  1.0 0.0703951985
C  C6  1  0.55753000  0.64747000  0.64543000  1.0 -0.1699484281
C  C7  1  0.65052000  0.69408000  0.62206000  1.0 -0.1268147148
C  C8  1  0.45418000  0.67502000  0.66716000  1.0 0.0812777098
C  C9  1  0.40109000  0.70871000  0.64400000  1.0 -0.1978945575
C  C10  1  0.30432000  0.66048000  0.66573000  1.0 0.0812777098
C  C11  1  0.26169000  0.57731000  0.71154000  1.0 -0.1978945575
C  C12  1  0.31338000  0.54282000  0.73566000  1.0 0.0812777098
C  C13  1  0.40950000  0.59230000  0.71292000  1.0 -0.2095620475
C  C14  1  0.24626000  0.69454000  0.64087000  1.0 0.0812777098
C  C15  1  0.23850000  0.72390000  0.58804000  1.0 -0.1699484281
C  C16  1  0.18267000  0.75373000  0.56488000  1.0 -0.1074166513
C  C17  1  0.13286000  0.75474000  0.59414000  1.0 -0.0200410086
C  C18  1  0.14020000  0.72620000  0.64658000  1.0 -0.0922088466
C  C19  1  0.19723000  0.69757000  0.66985000  1.0 -0.1498100774
C  C20  1  0.07188000  0.78632000  0.56914000  1.0 0.5507749774
C  C21  1  0.26666000  0.45534000  0.78473000  1.0 0.0703951985
C  C22  1  0.13924000  0.36176000  0.79661000  1.0 -0.1498100774
C  C23  1  0.09765000  0.28415000  0.84303000  1.0 -0.0922088466
C  C24  1  0.18137000  0.29583000  0.87892000  1.0 -0.0288468582
C  C25  1  0.30893000  0.38947000  0.86758000  1.0 -0.1761930502
C  C26  1  0.35191000  0.46929000  0.82142000  1.0 -0.1596872153
C  C27  1  0.13200000  0.20500000  0.92784000  1.0 0.6062221982
C  C28  1  0.11273000  0.23467000  0.60994000  1.0 0.0376480267
C  C29  1  0.14849000  0.32831000  0.63447000  1.0 -0.2972236714
C  C30  1  0.04129000  0.30431000  0.62178000  1.0 0.130021745
C  C31  1  0.05737000  0.39223000  0.58853000  1.0 -0.1596872153
C  C32  1  0.95647000  0.36773000  0.57620000  1.0 -0.0992865405
C  C33  1  0.83997000  0.25663000  0.59600000  1.0 -0.1171871472
C  C34  1  0.82178000  0.16762000  0.62900000  1.0 -0.0992865405
C  C35  1  0.92091000  0.19029000  0.64198000  1.0 -0.1596872153
C  C36  1  0.45156000  0.67204000  0.49372000  1.0 0.0993637972
C  C37  1  0.56280000  0.80880000  0.47844000  1.0 -0.229129295
C  C38  1  0.56140000  0.88740000  0.47220000  1.0 -0.0646750174
C  C39  1  0.45387000  0.83573000  0.48020000  1.0 -0.1171871472
C  C40  1  0.34256000  0.70264000  0.49418000  1.0 -0.0992865405
C  C41  1  0.34358000  0.62382000  0.50075000  1.0 -0.2095620475
C  C42  1  0.37509000  0.48471000  0.47080000  1.0 -0.0020822965
C  C43  1  0.43810000  0.56890000  0.51020000  1.0 -0.0922088466
C  C44  1  0.36350000  0.47690000  0.50110000  1.0 -0.0200410086
C  C45  1  0.47990000  0.62610000  0.48080000  1.0 -0.1268147148
C  C46  1  0.86764000  0.84036000  0.93150000  1.0 0.618686811
C  C47  1  0.81909000  0.74231000  0.90487000  1.0 -0.0288468582
C  C48  1  0.89617000  0.73883000  0.90852000  1.0 -0.0922088466
C  C49  1  0.84937000  0.64623000  0.88504000  1.0 -0.1498100774
C  C50  1  0.72465000  0.55415000  0.85748000  1.0 0.0703951985
C  C51  1  0.64747000  0.55753000  0.85457000  1.0 -0.1699484281
C  C52  1  0.69408000  0.65052000  0.87794000  1.0 -0.1268147148
C  C53  1  0.67502000  0.45418000  0.83284000  1.0 0.0812777098
C  C54  1  0.70871000  0.40109000  0.85600000  1.0 -0.1978945575
C  C55  1  0.66048000  0.30432000  0.83427000  1.0 0.0812777098
C  C56  1  0.57731000  0.26169000  0.78846000  1.0 -0.1978945575
C  C57  1  0.54282000  0.31338000  0.76434000  1.0 0.0812777098
C  C58  1  0.59230000  0.40950000  0.78708000  1.0 -0.2095620475
C  C59  1  0.69454000  0.24626000  0.85913000  1.0 0.0812777098
C  C60  1  0.72390000  0.23850000  0.91196000  1.0 -0.1699484281
C  C61  1  0.75373000  0.18267000  0.93512000  1.0 -0.1074166513
C  C62  1  0.75474000  0.13286000  0.90586000  1.0 -0.0200410086
C  C63  1  0.72620000  0.14020000  0.85342000  1.0 -0.0922088466
C  C64  1  0.69757000  0.19723000  0.83015000  1.0 -0.1498100774
C  C65  1  0.78632000  0.07188000  0.93086000  1.0 0.5507749774
C  C66  1  0.45534000  0.26666000  0.71527000  1.0 0.0703951985
C  C67  1  0.36176000  0.13924000  0.70339000  1.0 -0.1498100774
C  C68  1  0.28415000  0.09765000  0.65697000  1.0 -0.0922088466
C  C69  1  0.29583000  0.18137000  0.62108000  1.0 -0.0288468582
C  C70  1  0.38947000  0.30893000  0.63242000  1.0 -0.1761930502
C  C71  1  0.46929000  0.35191000  0.67858000  1.0 -0.1596872153
C  C72  1  0.20500000  0.13200000  0.57216000  1.0 0.6062221982
C  C73  1  0.23467000  0.11273000  0.89006000  1.0 0.0376480267
C  C74  1  0.32831000  0.14849000  0.86553000  1.0 -0.2972236714
C  C75  1  0.30431000  0.04129000  0.87822000  1.0 0.130021745
C  C76  1  0.39223000  0.05737000  0.91147000  1.0 -0.1596872153
C  C77  1  0.36773000  0.95647000  0.92380000  1.0 -0.0992865405
C  C78  1  0.25663000  0.83997000  0.90400000  1.0 -0.1171871472
C  C79  1  0.16762000  0.82178000  0.87100000  1.0 -0.0992865405
C  C80  1  0.19029000  0.92091000  0.85802000  1.0 -0.1596872153
C  C81  1  0.67204000  0.45156000  0.00628000  1.0 0.0993637972
C  C82  1  0.80880000  0.56280000  0.02156000  1.0 -0.229129295
C  C83  1  0.88740000  0.56140000  0.02780000  1.0 -0.0646750174
C  C84  1  0.83573000  0.45387000  0.01980000  1.0 -0.1171871472
C  C85  1  0.70264000  0.34256000  0.00582000  1.0 -0.0992865405
C  C86  1  0.62382000  0.34358000  0.99925000  1.0 -0.2095620475
C  C87  1  0.48471000  0.37509000  0.02920000  1.0 -0.0020822965
C  C88  1  0.56890000  0.43810000  0.98980000  1.0 -0.0922088466
C  C89  1  0.47690000  0.36350000  0.99890000  1.0 -0.0200410086
C  C90  1  0.62610000  0.47990000  0.01920000  1.0 -0.1268147148
C  C91  1  0.15964000  0.13236000  0.43150000  1.0 0.618686811
C  C92  1  0.25769000  0.18091000  0.40487000  1.0 -0.0288468582
C  C93  1  0.26117000  0.10383000  0.40852000  1.0 -0.0922088466
C  C94  1  0.35377000  0.15063000  0.38504000  1.0 -0.1498100774
C  C95  1  0.44585000  0.27535000  0.35748000  1.0 0.0703951985
C  C96  1  0.44247000  0.35253000  0.35457000  1.0 -0.1699484281
C  C97  1  0.34948000  0.30592000  0.37794000  1.0 -0.1268147148
C  C98  1  0.54582000  0.32498000  0.33284000  1.0 0.0812777098
C  C99  1  0.59891000  0.29129000  0.35600000  1.0 -0.1978945575
C  C100  1  0.69568000  0.33952000  0.33427000  1.0 0.0812777098
C  C101  1  0.73831000  0.42269000  0.28846000  1.0 -0.1978945575
C  C102  1  0.68662000  0.45718000  0.26434000  1.0 0.0812777098
C  C103  1  0.59050000  0.40770000  0.28708000  1.0 -0.2095620475
C  C104  1  0.75374000  0.30546000  0.35913000  1.0 0.0812777098
C  C105  1  0.76150000  0.27610000  0.41196000  1.0 -0.1699484281
C  C106  1  0.81733000  0.24627000  0.43512000  1.0 -0.1074166513
C  C107  1  0.86714000  0.24526000  0.40586000  1.0 -0.0200410086
C  C108  1  0.85980000  0.27380000  0.35342000  1.0 -0.0922088466
C  C109  1  0.80277000  0.30243000  0.33015000  1.0 -0.1498100774
C  C110  1  0.92812000  0.21368000  0.43086000  1.0 0.5507749774
C  C111  1  0.73334000  0.54466000  0.21527000  1.0 0.0703951985
C  C112  1  0.86076000  0.63824000  0.20339000  1.0 -0.1498100774
C  C113  1  0.90235000  0.71585000  0.15697000  1.0 -0.0922088466
C  C114  1  0.81863000  0.70417000  0.12108000  1.0 -0.0288468582
C  C115  1  0.69107000  0.61053000  0.13242000  1.0 -0.1761930502
C  C116  1  0.64809000  0.53071000  0.17858000  1.0 -0.1596872153
C  C117  1  0.86800000  0.79500000  0.07216000  1.0 0.6062221982
C  C118  1  0.88727000  0.76533000  0.39006000  1.0 0.0376480267
C  C119  1  0.85151000  0.67169000  0.36553000  1.0 -0.2972236714
C  C120  1  0.95871000  0.69569000  0.37822000  1.0 0.130021745
C  C121  1  0.94263000  0.60777000  0.41147000  1.0 -0.1596872153
C  C122  1  0.04353000  0.63227000  0.42380000  1.0 -0.0992865405
C  C123  1  0.16003000  0.74337000  0.40400000  1.0 -0.1171871472
C  C124  1  0.17822000  0.83238000  0.37100000  1.0 -0.0992865405
C  C125  1  0.07909000  0.80971000  0.35802000  1.0 -0.1596872153
C  C126  1  0.54844000  0.32796000  0.50628000  1.0 0.0993637972
C  C127  1  0.43720000  0.19120000  0.52156000  1.0 -0.229129295
C  C128  1  0.43860000  0.11260000  0.52780000  1.0 -0.0646750174
C  C129  1  0.54613000  0.16427000  0.51980000  1.0 -0.1171871472
C  C130  1  0.65744000  0.29736000  0.50582000  1.0 -0.0992865405
C  C131  1  0.65642000  0.37618000  0.49925000  1.0 -0.2095620475
C  C132  1  0.62491000  0.51529000  0.52920000  1.0 -0.0020822965
C  C133  1  0.56190000  0.43110000  0.48980000  1.0 -0.0992865405
C  C134  1  0.63650000  0.52310000  0.49890000  1.0 -0.0200410086
C  C135  1  0.52010000  0.37390000  0.51920000  1.0 -0.1268147148
C  C136  1  0.13236000  0.15964000  0.06850000  1.0 0.618686811
C  C137  1  0.18091000  0.25769000  0.09513000  1.0 -0.0288468582
C  C138  1  0.10383000  0.26117000  0.09148000  1.0 -0.0922088466
C  C139  1  0.15063000  0.35377000  0.11496000  1.0 -0.1498100774
C  C140  1  0.27535000  0.44585000  0.14252000  1.0 0.0703951985
C  C141  1  0.35253000  0.44247000  0.14543000  1.0 -0.1699484281
C  C142  1  0.30592000  0.34948000  0.12206000  1.0 -0.1268147148
C  C143  1  0.32498000  0.54582000  0.16716000  1.0 0.0812777098
C  C144  1  0.29129000  0.59891000  0.14400000  1.0 -0.1978945575
C  C145  1  0.33952000  0.69568000  0.16573000  1.0 0.0812777098
C  C146  1  0.42269000  0.73831000  0.21154000  1.0 -0.1978945575
C  C147  1  0.45718000  0.68662000  0.23566000  1.0 0.0812777098
C  C148  1  0.40770000  0.59050000  0.21292000  1.0 -0.2095620475
C  C149  1  0.30546000  0.75374000  0.14087000  1.0 0.0812777098
C  C150  1  0.27610000  0.76150000  0.08804000  1.0 -0.1699484281
C  C151  1  0.24627000  0.81733000  0.06488000  1.0 -0.1074166513
C  C152  1  0.24526000  0.86714000  0.09414000  1.0 -0.0200410086
C  C153  1  0.27380000  0.85980000  0.14658000  1.0 -0.0922088466
C  C154  1  0.30243000  0.80277000  0.16985000  1.0 -0.1498100774
C  C155  1  0.21368000  0.92812000  0.06914000  1.0 0.5507749774
C  C156  1  0.54466000  0.73334000  0.28473000  1.0 0.0703951985
C  C157  1  0.63824000  0.86076000  0.29661000  1.0 -0.1498100774
C  C158  1  0.71585000  0.90235000  0.34303000  1.0 -0.0922088466
C  C159  1  0.70417000  0.81863000  0.37892000  1.0 -0.0288468582
C  C160  1  0.61053000  0.69107000  0.36758000  1.0 -0.1761930502
C  C161  1  0.53071000  0.64809000  0.32142000  1.0 -0.1596872153
C  C162  1  0.79500000  0.86800000  0.42784000  1.0 0.6062221982
C  C163  1  0.76533000  0.88727000  0.10994000  1.0 0.0376480267
C  C164  1  0.67169000  0.85151000  0.13447000  1.0 -0.2972236714
C  C165  1  0.69569000  0.95871000  0.12178000  1.0 0.130021745
C  C166  1  0.60777000  0.94263000  0.08853000  1.0 -0.1596872153
C  C167  1  0.63227000  0.04353000  0.07620000  1.0 -0.0992865405
C  C168  1  0.74337000  0.16003000  0.09600000  1.0 -0.1171871472
C  C169  1  0.83238000  0.17822000  0.12900000  1.0 -0.0992865405
C  C170  1  0.80971000  0.07909000  0.14198000  1.0 -0.1596872153
C  C171  1  0.32796000  0.54844000  0.99372000  1.0 0.0993637972
C  C172  1  0.19120000  0.43720000  0.97844000  1.0 -0.229129295
C  C173  1  0.11260000  0.43860000  0.97220000  1.0 -0.0646750174
C  C174  1  0.16427000  0.54613000  0.98020000  1.0 -0.1171871472
C  C175  1  0.29736000  0.65744000  0.99418000  1.0 -0.0992865405
C  C176  1  0.37618000  0.65642000  0.00075000  1.0 -0.2095620475
C  C177  1  0.51529000  0.62491000  0.97080000  1.0 -0.0020822965
C  C178  1  0.43110000  0.56190000  0.01020000  1.0 -0.0992865405
C  C179  1  0.52310000  0.63650000  0.00110000  1.0 -0.0200410086
C  C180  1  0.37390000  0.52010000  0.98080000  1.0 -0.1268147148
O  O1  1  0.92037000  0.98063000  0.54376000  1.0 -0.6962581716
O  O2  1  0.83681000  0.79259000  0.57183000  1.0 -0.6430838696
O  O3  1  0.08317000  0.83025000  0.52227000  1.0 -0.633329644
O  O4  1  0.00964000  0.76872000  0.59436000  1.0 -0.6005443476
O  O5  1  0.01804000  0.12878000  0.93587000  1.0 -0.6504960201
O  O6  1  0.20630000  0.20970000  0.95710000  1.0 -0.6646507524
O  O7  1  0.09455000  0.25425000  0.55539000  1.0 -0.5519803904
O  O8  1  0.24186000  0.39974000  0.46419000  1.0 -0.3757307969
O  O9  1  0.98063000  0.92037000  0.95624000  1.0 -0.6962581716
O  O10  1  0.79259000  0.83681000  0.92817000  1.0 -0.6430838696
O  O11  1  0.83025000  0.08317000  0.97773000  1.0 -0.633329644
O  O12  1  0.76872000  0.00964000  0.90564000  1.0 -0.6005443476
O  O13  1  0.12878000  0.01804000  0.56413000  1.0 -0.6504960201
O  O14  1  0.20970000  0.20630000  0.54290000  1.0 -0.6646507524
O  O15  1  0.25425000  0.09455000  0.94461000  1.0 -0.5519803904
O  O16  1  0.39974000  0.24186000  0.03581000  1.0 -0.3757307969
O  O17  1  0.07963000  0.01937000  0.45624000  1.0 -0.6962581716
O  O18  1  0.16319000  0.20741000  0.42817000  1.0 -0.6430838696
O  O19  1  0.91683000  0.16975000  0.47773000  1.0 -0.633329644
O  O20  1  0.99036000  0.23128000  0.40564000  1.0 -0.6005443476
O  O21  1  0.98196000  0.87122000  0.06413000  1.0 -0.6504960201
O  O22  1  0.79370000  0.79030000  0.04290000  1.0 -0.6646507524
O  O23  1  0.90545000  0.74575000  0.44461000  1.0 -0.5519803904
O  O24  1  0.75814000  0.60026000  0.53581000  1.0 -0.3757307969
O  O25  1  0.01937000  0.07963000  0.04376000  1.0 -0.6962581716
O  O26  1  0.20741000  0.16319000  0.07183000  1.0 -0.6430838696
O  O27  1  0.16975000  0.91683000  0.02227000  1.0 -0.633329644
O  O28  1  0.23128000  0.99036000  0.09436000  1.0 -0.6005443476
O  O29  1  0.87122000  0.98196000  0.43587000  1.0 -0.6504960201
O  O30  1  0.79030000  0.79370000  0.45710000  1.0 -0.6646507524
O  O31  1  0.74575000  0.90545000  0.05539000  1.0 -0.5519803904
O  O32  1  0.60026000  0.75814000  0.96419000  1.0 -0.3757307969
